00030
     RDKit          3D

 62 70  0  0  0  0  0  0  0  0999 V2000
    3.5975    6.0845    6.6327 F   0  0  0  0  0  0  0  0  0  0  0  0
    0.4930    0.0097   -1.1171 C   0  0  0  0  0  0  0  0  0  0  0  0
   -2.2626    3.2371    0.7555 H   0  0  0  0  0  0  0  0  0  0  0  0
   -1.2312   -4.1247   -3.2226 N   0  0  0  0  0  0  0  0  0  0  0  0
   -3.8032   -4.2635   -3.6964 H   0  0  0  0  0  0  0  0  0  0  0  0
    1.3995    2.7428    3.0691 C   0  0  0  0  0  0  0  0  0  0  0  0
   -4.0383   -6.3413   -4.2109 C   0  0  0  0  0  0  0  0  0  0  0  0
    2.1020   -3.0032   -1.1495 H   0  0  0  0  0  0  0  0  0  0  0  0
   -1.4176   -0.1948   -6.2476 H   0  0  0  0  0  0  0  0  0  0  0  0
    3.0818   -1.2574    0.6838 H   0  0  0  0  0  0  0  0  0  0  0  0
   -0.3282    4.2912    3.3993 C   0  0  0  0  0  0  0  0  0  0  0  0
    0.1673    1.0569   -0.2058 C   0  0  0  0  0  0  0  0  0  0  0  0
    1.7671    4.4491    4.9449 C   0  0  0  0  0  0  0  0  0  0  0  0
   -4.0914    7.5324    4.3359 N   0  0  0  0  0  0  0  0  0  0  0  0
   -0.0674   -1.3748   -3.1869 C   0  0  0  0  0  0  0  0  0  0  0  0
    4.3105    2.2393    4.7430 H   0  0  0  0  0  0  0  0  0  0  0  0
   -3.3688    6.6261    3.8317 C   0  0  0  0  0  0  0  0  0  0  0  0
    4.3230    4.0632    7.4138 F   0  0  0  0  0  0  0  0  0  0  0  0
    4.0475    4.6807    6.1886 C   0  0  0  0  0  0  0  0  0  0  0  0
   -2.7196    4.7516    2.1709 C   0  0  0  0  0  0  0  0  0  0  0  0
   -0.8791    5.9244    4.8065 H   0  0  0  0  0  0  0  0  0  0  0  0
   -1.4780   -8.6295   -4.1987 H   0  0  0  0  0  0  0  0  0  0  0  0
    0.7485   -7.3965   -3.3406 H   0  0  0  0  0  0  0  0  0  0  0  0
   -0.6219    3.4125    2.2172 C   0  0  0  0  0  0  0  0  0  0  0  0
   -3.3740   -7.5945   -4.3647 C   0  0  0  0  0  0  0  0  0  0  0  0
    0.9818    3.8857    3.9017 C   0  0  0  0  0  0  0  0  0  0  0  0
   -1.8980    3.7507    1.6183 C   0  0  0  0  0  0  0  0  0  0  0  0
    1.9924    0.5247    1.3133 C   0  0  0  0  0  0  0  0  0  0  0  0
   -0.4144    1.0201   -3.2423 C   0  0  0  0  0  0  0  0  0  0  0  0
    0.5273    2.4057    2.0084 C   0  0  0  0  0  0  0  0  0  0  0  0
   -0.3377    2.0597   -2.8272 H   0  0  0  0  0  0  0  0  0  0  0  0
   -0.8870    0.9708   -4.4943 N   0  0  0  0  0  0  0  0  0  0  0  0
    2.8131    0.9432    2.4292 C   0  0  0  0  0  0  0  0  0  0  0  0
   -0.7278    1.7228   -0.3995 H   0  0  0  0  0  0  0  0  0  0  0  0
    2.5888    2.0914    3.3326 C   0  0  0  0  0  0  0  0  0  0  0  0
    1.8785   -5.2559   -2.6030 H   0  0  0  0  0  0  0  0  0  0  0  0
    1.3692   -2.2338   -1.4468 C   0  0  0  0  0  0  0  0  0  0  0  0
    1.4126    5.3261    5.5910 H   0  0  0  0  0  0  0  0  0  0  0  0
    3.7387    0.4102    2.6604 H   0  0  0  0  0  0  0  0  0  0  0  0
    0.1821   -6.4269   -3.2835 C   0  0  0  0  0  0  0  0  0  0  0  0
    2.2473   -0.6398    0.4631 C   0  0  0  0  0  0  0  0  0  0  0  0
    1.4043   -0.9797   -0.6808 C   0  0  0  0  0  0  0  0  0  0  0  0
   -0.6343   -1.3893   -4.5172 C   0  0  0  0  0  0  0  0  0  0  0  0
    3.0738    3.9306    5.2237 C   0  0  0  0  0  0  0  0  0  0  0  0
    0.4896   -2.5213   -2.5188 C   0  0  0  0  0  0  0  0  0  0  0  0
    0.8135   -5.2195   -2.9145 C   0  0  0  0  0  0  0  0  0  0  0  0
   -0.7536   -2.3237   -5.0914 H   0  0  0  0  0  0  0  0  0  0  0  0
   -1.2216   -6.4937   -3.6494 C   0  0  0  0  0  0  0  0  0  0  0  0
   -2.4050    5.5606    3.3039 C   0  0  0  0  0  0  0  0  0  0  0  0
    3.3905    2.7062    4.4691 C   0  0  0  0  0  0  0  0  0  0  0  0
    5.3044    4.9111    5.6723 F   0  0  0  0  0  0  0  0  0  0  0  0
   -1.9123   -5.2475   -3.5433 C   0  0  0  0  0  0  0  0  0  0  0  0
   -1.9751   -7.6476   -4.0813 C   0  0  0  0  0  0  0  0  0  0  0  0
   -0.0082   -0.1100   -2.4937 C   0  0  0  0  0  0  0  0  0  0  0  0
   -1.1613    5.2809    3.9135 C   0  0  0  0  0  0  0  0  0  0  0  0
   -3.3386   -5.2053   -3.8008 C   0  0  0  0  0  0  0  0  0  0  0  0
   -1.0239   -0.2231   -5.1920 C   0  0  0  0  0  0  0  0  0  0  0  0
   -5.1261   -6.3140   -4.4663 H   0  0  0  0  0  0  0  0  0  0  0  0
   -3.7063    4.9729    1.7270 H   0  0  0  0  0  0  0  0  0  0  0  0
    0.0968   -3.9641   -2.9401 C   0  0  0  0  0  0  0  0  0  0  0  0
    0.8466    1.3265    1.0299 C   0  0  0  0  0  0  0  0  0  0  0  0
   -3.9766   -8.5262   -4.7232 H   0  0  0  0  0  0  0  0  0  0  0  0
  1 19  1  0
  2 12  4  0
  2 42  4  0
  2 54  4  0
  3 27  1  0
  4 52  4  0
  4 60  4  0
  5 56  1  0
  6 26  4  0
  6 30  4  0
  6 35  4  0
  7 25  4  0
  7 56  4  0
  7 58  1  0
  8 37  1  0
  9 57  1  0
 10 41  1  0
 11 24  4  0
 11 26  1  0
 11 55  4  0
 12 34  1  0
 12 61  4  0
 13 26  4  0
 13 38  1  0
 13 44  4  0
 14 17  3  0
 15 43  4  0
 15 45  4  0
 15 54  4  0
 16 50  1  0
 17 49  1  0
 18 19  1  0
 19 44  1  0
 19 51  1  0
 20 27  4  0
 20 49  4  0
 20 59  1  0
 21 55  1  0
 22 53  1  0
 23 40  1  0
 24 27  4  0
 24 30  1  0
 25 53  4  0
 25 62  1  0
 28 33  4  0
 28 41  4  0
 28 61  4  0
 29 31  1  0
 29 32  4  0
 29 54  4  0
 30 61  4  0
 32 57  4  0
 33 35  4  0
 33 39  1  0
 35 50  4  0
 36 46  1  0
 37 42  4  0
 37 45  4  0
 40 46  4  0
 40 48  4  0
 41 42  4  0
 43 47  1  0
 43 57  4  0
 44 50  4  0
 45 60  1  0
 46 60  4  0
 48 52  4  0
 48 53  4  0
 49 55  4  0
 52 56  4  0
M  END
>  <generation_index>  (1) 
30

>  <target_raw_property>  (1) 
0.5

>  <num_atoms>  (1) 
62

>  <sanitize_ok>  (1) 
True

>  <single_component>  (1) 
True

>  <canonical_smiles>  (1) 
[H]c1nc([H])c2c(c1[H])c(-c1nc3c([H])c([H])c([H])c([H])c3c([H])c1[H])c([H])c1c([H])c3c([H])c4c([H])c(C(F)(F)F)c([H])c5c4c(c3c([H])c12)-c1c([H])c([H])c(C#N)c([H])c1-5

>  <is_unique_generated>  (1) 
True

>  <dataset_membership_checked>  (1) 
True

>  <in_train_dataset>  (1) 
False

>  <in_val_dataset>  (1) 
False

>  <in_test_dataset>  (1) 
False

>  <in_any_dataset>  (1) 
False

>  <is_novel>  (1) 
True

$$$$
