00062
     RDKit          3D

 80 90  0  0  0  0  0  0  0  0999 V2000
    2.4222   11.2280   -4.0112 O   0  0  0  0  0  0  0  0  0  0  0  0
    0.4638   -7.6989   -3.3470 C   0  0  0  0  0  0  0  0  0  0  0  0
    3.5318   11.3302   -5.9180 H   0  0  0  0  0  0  0  0  0  0  0  0
    1.9358    0.1929    0.5226 N   0  0  0  0  0  0  0  0  0  0  0  0
    0.1030   -5.6827   -3.3999 H   0  0  0  0  0  0  0  0  0  0  0  0
    1.2888   10.0188   -2.0355 N   0  0  0  0  0  0  0  0  0  0  0  0
   -1.6152   -2.1430    3.8457 C   0  0  0  0  0  0  0  0  0  0  0  0
    0.5482   -8.9141   -2.6737 C   0  0  0  0  0  0  0  0  0  0  0  0
    1.2344   -2.3624    0.5836 H   0  0  0  0  0  0  0  0  0  0  0  0
    3.0007    9.2248   -4.9473 C   0  0  0  0  0  0  0  0  0  0  0  0
   -0.7666   -5.2276    1.1734 C   0  0  0  0  0  0  0  0  0  0  0  0
    0.6426   -7.7409   -4.4600 H   0  0  0  0  0  0  0  0  0  0  0  0
    1.9789   10.1690   -3.2173 C   0  0  0  0  0  0  0  0  0  0  0  0
   -3.5225   -2.7010    2.6605 C   0  0  0  0  0  0  0  0  0  0  0  0
    0.9721   -0.3725   -0.2674 C   0  0  0  0  0  0  0  0  0  0  0  0
    2.1690    4.1977   -3.2547 C   0  0  0  0  0  0  0  0  0  0  0  0
   -5.6568   -3.0517    1.7948 C   0  0  0  0  0  0  0  0  0  0  0  0
    0.7104    6.2876   -0.5704 C   0  0  0  0  0  0  0  0  0  0  0  0
   -2.1342    0.4961    6.8184 C   0  0  0  0  0  0  0  0  0  0  0  0
   -0.2493   -2.4632   -0.9169 C   0  0  0  0  0  0  0  0  0  0  0  0
    0.1616   -3.3564    3.3991 H   0  0  0  0  0  0  0  0  0  0  0  0
   -0.1782   -7.7221    0.9315 C   0  0  0  0  0  0  0  0  0  0  0  0
   -0.8876    0.5075    7.4246 C   0  0  0  0  0  0  0  0  0  0  0  0
   -2.8655   -1.9904    3.5299 N   0  0  0  0  0  0  0  0  0  0  0  0
   -0.1445   -1.0905    5.8191 C   0  0  0  0  0  0  0  0  0  0  0  0
   -6.7554   -2.9033    1.8014 H   0  0  0  0  0  0  0  0  0  0  0  0
    0.7083   -1.6774    5.4745 H   0  0  0  0  0  0  0  0  0  0  0  0
    2.4253    3.3495   -3.7974 H   0  0  0  0  0  0  0  0  0  0  0  0
    1.1289   -4.1171   -1.2684 H   0  0  0  0  0  0  0  0  0  0  0  0
    0.4644    1.8046   -1.4537 C   0  0  0  0  0  0  0  0  0  0  0  0
   -0.3193   -5.2681   -0.3084 C   0  0  0  0  0  0  0  0  0  0  0  0
    0.3281    5.7112    0.2848 H   0  0  0  0  0  0  0  0  0  0  0  0
    1.3325    5.5597   -1.6571 C   0  0  0  0  0  0  0  0  0  0  0  0
   -5.0949   -3.9117    0.9163 N   0  0  0  0  0  0  0  0  0  0  0  0
   -0.2606    2.2160   -2.2007 H   0  0  0  0  0  0  0  0  0  0  0  0
    1.7865    7.8476   -2.7571 C   0  0  0  0  0  0  0  0  0  0  0  0
   -0.6123   -4.0945   -2.2659 H   0  0  0  0  0  0  0  0  0  0  0  0
    2.9840    3.5401    0.2800 H   0  0  0  0  0  0  0  0  0  0  0  0
    0.9946   10.9536   -1.6381 H   0  0  0  0  0  0  0  0  0  0  0  0
   -2.1178   -1.9605   -2.0334 H   0  0  0  0  0  0  0  0  0  0  0  0
   -1.1765   -1.6103   -1.5338 C   0  0  0  0  0  0  0  0  0  0  0  0
    1.4470    2.8451   -1.1188 C   0  0  0  0  0  0  0  0  0  0  0  0
    1.8168    6.4349   -2.7373 C   0  0  0  0  0  0  0  0  0  0  0  0
    0.1633   -6.4923   -2.6586 C   0  0  0  0  0  0  0  0  0  0  0  0
   -0.6847   -6.7489    2.7802 H   0  0  0  0  0  0  0  0  0  0  0  0
    2.3323    5.5216   -3.7289 C   0  0  0  0  0  0  0  0  0  0  0  0
    1.1824    8.5325   -1.6954 C   0  0  0  0  0  0  0  0  0  0  0  0
    2.4516    1.3961    0.5795 C   0  0  0  0  0  0  0  0  0  0  0  0
    1.6190    4.1494   -1.9293 N   0  0  0  0  0  0  0  0  0  0  0  0
    0.4106   -9.9236   -0.7752 H   0  0  0  0  0  0  0  0  0  0  0  0
   -1.4589   -4.0115    2.0551 C   0  0  0  0  0  0  0  0  0  0  0  0
   -0.0293   -6.4369   -1.1450 C   0  0  0  0  0  0  0  0  0  0  0  0
   -0.0363   -3.9234   -1.1602 C   0  0  0  0  0  0  0  0  0  0  0  0
   -0.0938   -8.7439    1.4324 H   0  0  0  0  0  0  0  0  0  0  0  0
    0.1529    0.3793   -1.1271 C   0  0  0  0  0  0  0  0  0  0  0  0
   -3.5250   -5.0117    0.2089 H   0  0  0  0  0  0  0  0  0  0  0  0
   -2.9150    1.1327    7.3010 H   0  0  0  0  0  0  0  0  0  0  0  0
   -2.8596   -3.7022    1.8443 C   0  0  0  0  0  0  0  0  0  0  0  0
    2.3226    2.6492   -0.0466 C   0  0  0  0  0  0  0  0  0  0  0  0
    0.6405    7.7078   -0.6235 C   0  0  0  0  0  0  0  0  0  0  0  0
   -1.3499   -1.1938    5.0931 C   0  0  0  0  0  0  0  0  0  0  0  0
   -3.4322   -0.3160    5.3266 H   0  0  0  0  0  0  0  0  0  0  0  0
   -0.5344   -6.5964    1.6956 C   0  0  0  0  0  0  0  0  0  0  0  0
   -4.8877   -2.4636    2.6407 N   0  0  0  0  0  0  0  0  0  0  0  0
    0.0579   -7.7072   -0.5250 C   0  0  0  0  0  0  0  0  0  0  0  0
    0.1630    8.2858    0.1741 H   0  0  0  0  0  0  0  0  0  0  0  0
   -0.9431   -0.3035   -1.6634 N   0  0  0  0  0  0  0  0  0  0  0  0
    2.2928    8.8685   -3.7113 C   0  0  0  0  0  0  0  0  0  0  0  0
    0.7727   -9.9308   -3.2407 H   0  0  0  0  0  0  0  0  0  0  0  0
   -2.3686   -0.3217    5.6744 C   0  0  0  0  0  0  0  0  0  0  0  0
    0.3519   -8.8858   -1.2895 C   0  0  0  0  0  0  0  0  0  0  0  0
   -3.8078   -4.2380    0.9558 C   0  0  0  0  0  0  0  0  0  0  0  0
   -0.7062    1.1389    8.3800 H   0  0  0  0  0  0  0  0  0  0  0  0
    0.6827   -1.7696   -0.1406 N   0  0  0  0  0  0  0  0  0  0  0  0
    3.0929   10.6491   -5.1419 C   0  0  0  0  0  0  0  0  0  0  0  0
   -0.8910   -3.1486    3.1010 C   0  0  0  0  0  0  0  0  0  0  0  0
    3.3687    1.4593    1.3446 H   0  0  0  0  0  0  0  0  0  0  0  0
    0.0751   -0.2848    6.9090 N   0  0  0  0  0  0  0  0  0  0  0  0
    2.7646    5.8407   -4.6848 H   0  0  0  0  0  0  0  0  0  0  0  0
    3.4041    8.5884   -5.6802 H   0  0  0  0  0  0  0  0  0  0  0  0
  1 13  4  0
  1 75  4  0
  2  8  4  0
  2 12  1  0
  2 44  4  0
  3 75  1  0
  4 15  2  0
  4 48  1  0
  5 44  1  0
  6 13  4  0
  6 39  1  0
  6 47  4  0
  7 24  4  0
  7 61  1  0
  7 76  4  0
  8 69  1  0
  8 71  4  0
  9 74  1  0
 10 68  4  0
 10 75  4  0
 10 80  1  0
 11 31  4  0
 11 51  1  0
 11 63  4  0
 13 68  4  0
 14 24  4  0
 14 58  4  0
 14 64  4  0
 15 55  1  0
 15 74  1  0
 16 28  1  0
 16 46  4  0
 16 49  4  0
 17 26  1  0
 17 34  4  0
 17 64  4  0
 18 32  1  0
 18 33  4  0
 18 60  4  0
 19 23  4  0
 19 57  1  0
 19 70  4  0
 20 41  2  0
 20 53  1  0
 20 74  1  0
 21 76  1  0
 22 54  1  0
 22 63  4  0
 22 65  4  0
 23 73  1  0
 23 78  4  0
 25 27  1  0
 25 61  4  0
 25 78  4  0
 29 53  1  0
 30 35  1  0
 30 42  2  0
 30 55  1  0
 31 52  4  0
 31 53  1  0
 33 43  4  0
 33 49  4  0
 34 72  4  0
 36 43  4  0
 36 47  4  0
 36 68  4  0
 37 53  1  0
 38 59  1  0
 40 41  1  0
 41 67  1  0
 42 49  1  0
 42 59  1  0
 43 46  4  0
 44 52  4  0
 45 63  1  0
 46 79  1  0
 47 60  4  0
 48 59  2  0
 48 77  1  0
 50 71  1  0
 51 58  4  0
 51 76  4  0
 52 65  4  0
 55 67  2  0
 56 72  1  0
 58 72  4  0
 60 66  1  0
 61 70  4  0
 62 70  1  0
 65 71  4  0
M  END
>  <generation_index>  (1) 
62

>  <target_raw_property>  (1) 
0.5

>  <num_atoms>  (1) 
80

>  <sanitize_ok>  (1) 
True

>  <single_component>  (1) 
True

>  <canonical_smiles>  (1) 
[H]C1=C([H])C(n2c([H])c([H])c3c4c5c([H])c([H])oc5n([H])c4c([H])c([H])c32)=C([H])C2=NC([H])=C(C([H])([H])c3c(-c4c([H])c(-c5c([H])nc([H])c([H])c5[H])nc5nc([H])nc([H])c45)c([H])c([H])c4c([H])c([H])c([H])c([H])c34)N([H])C2=N1

>  <is_unique_generated>  (1) 
True

>  <dataset_membership_checked>  (1) 
True

>  <in_train_dataset>  (1) 
False

>  <in_val_dataset>  (1) 
False

>  <in_test_dataset>  (1) 
False

>  <in_any_dataset>  (1) 
False

>  <is_novel>  (1) 
True

$$$$
