 energy: -113.942235498664 gnorm: 0.001914771233 xtb: 6.7.1 (edcfbbe)
          08252607103D

 54 59  0     0  0            999 V2000
   -3.1347   -5.6202    0.9685 H   0  0  0  0  0  0  0  0  0  0  0  0
    0.4709    1.0639   -0.6582 C   0  0  0  0  0  0  0  0  0  0  0  0
   -2.0509    6.3417   -1.7272 N   0  0  0  0  0  0  0  0  0  0  0  0
   -0.7087   -2.2483    0.0590 C   0  0  0  0  0  0  0  0  0  0  0  0
    3.7411   -2.0952   -0.6104 C   0  0  0  0  0  0  0  0  0  0  0  0
   -0.5165    5.1268    2.4379 H   0  0  0  0  0  0  0  0  0  0  0  0
    0.6306   -0.3226   -0.7609 C   0  0  0  0  0  0  0  0  0  0  0  0
   -0.7771    4.8189    1.4368 C   0  0  0  0  0  0  0  0  0  0  0  0
   -0.1351   -2.3746    1.3008 N   0  0  0  0  0  0  0  0  0  0  0  0
    3.7247    2.0775   -0.3498 H   0  0  0  0  0  0  0  0  0  0  0  0
   -2.5315    5.9246   -2.7507 O   0  0  0  0  0  0  0  0  0  0  0  0
    3.9970   -4.2803    0.2163 F   0  0  0  0  0  0  0  0  0  0  0  0
   -1.1809   -5.0069    3.6432 N   0  0  0  0  0  0  0  0  0  0  0  0
    1.9377   -0.8085   -0.6695 C   0  0  0  0  0  0  0  0  0  0  0  0
   -2.5526    7.4734    1.2760 O   0  0  0  0  0  0  0  0  0  0  0  0
   -2.3895   -3.3469   -1.3037 C   0  0  0  0  0  0  0  0  0  0  0  0
    1.6015    1.9026   -0.5190 C   0  0  0  0  0  0  0  0  0  0  0  0
    4.2058   -0.8155   -0.4759 C   0  0  0  0  0  0  0  0  0  0  0  0
   -0.2423    2.7735    1.7449 H   0  0  0  0  0  0  0  0  0  0  0  0
    0.2254   -3.5448    3.9049 H   0  0  0  0  0  0  0  0  0  0  0  0
   -2.0876   -5.5671    2.8497 C   0  0  0  0  0  0  0  0  0  0  0  0
   -1.1782   -1.4189   -2.1160 C   0  0  0  0  0  0  0  0  0  0  0  0
   -1.8784    7.5038   -1.4436 O   0  0  0  0  0  0  0  0  0  0  0  0
   -0.9703    3.1004   -0.2446 C   0  0  0  0  0  0  0  0  0  0  0  0
   -1.6790   -3.2626   -0.1131 C   0  0  0  0  0  0  0  0  0  0  0  0
    4.5001   -3.3765   -0.6467 C   0  0  0  0  0  0  0  0  0  0  0  0
    2.3775   -2.0993   -0.7232 N   0  0  0  0  0  0  0  0  0  0  0  0
   -1.8940    1.0663   -0.9647 O   0  0  0  0  0  0  0  0  0  0  0  0
   -0.8801    1.6547   -0.6667 C   0  0  0  0  0  0  0  0  0  0  0  0
    5.2289   -0.5203   -0.3640 H   0  0  0  0  0  0  0  0  0  0  0  0
   -3.1280   -4.1203   -1.4471 H   0  0  0  0  0  0  0  0  0  0  0  0
    1.4484    2.9700   -0.4814 H   0  0  0  0  0  0  0  0  0  0  0  0
   -0.6255    3.4993    1.0438 C   0  0  0  0  0  0  0  0  0  0  0  0
   -1.6051    5.3615   -0.7512 C   0  0  0  0  0  0  0  0  0  0  0  0
   -2.1274   -2.4199   -2.2936 C   0  0  0  0  0  0  0  0  0  0  0  0
    2.8801    1.4150   -0.4495 C   0  0  0  0  0  0  0  0  0  0  0  0
   -0.4524   -1.3073   -0.9382 C   0  0  0  0  0  0  0  0  0  0  0  0
   -1.6827   -4.0263    1.1043 C   0  0  0  0  0  0  0  0  0  0  0  0
    3.0670    0.0301   -0.5141 C   0  0  0  0  0  0  0  0  0  0  0  0
    5.7882   -3.2130   -0.3428 F   0  0  0  0  0  0  0  0  0  0  0  0
   -0.7178   -3.4333    1.9543 C   0  0  0  0  0  0  0  0  0  0  0  0
   -2.5982   -6.4191    3.2772 H   0  0  0  0  0  0  0  0  0  0  0  0
   -0.4149    7.7594    1.1973 O   0  0  0  0  0  0  0  0  0  0  0  0
   -1.2612    5.7574    0.5381 C   0  0  0  0  0  0  0  0  0  0  0  0
   -1.7648    3.7500   -2.1383 H   0  0  0  0  0  0  0  0  0  0  0  0
    1.8010   -2.9136   -0.8651 H   0  0  0  0  0  0  0  0  0  0  0  0
   -2.6658   -2.4670   -3.2274 H   0  0  0  0  0  0  0  0  0  0  0  0
   -2.3878   -5.1287    1.5715 C   0  0  0  0  0  0  0  0  0  0  0  0
   -1.4781    4.0344   -1.1365 C   0  0  0  0  0  0  0  0  0  0  0  0
    4.4523   -3.9633   -1.8592 F   0  0  0  0  0  0  0  0  0  0  0  0
   -1.4274    7.1360    1.0179 N   0  0  0  0  0  0  0  0  0  0  0  0
    0.5404   -1.7467    1.7012 H   0  0  0  0  0  0  0  0  0  0  0  0
   -0.5006   -3.9616    3.2191 C   0  0  0  0  0  0  0  0  0  0  0  0
   -0.9933   -0.7123   -2.9101 H   0  0  0  0  0  0  0  0  0  0  0  0
  1 48  1  0  0  0  0
  2  7  4  0  0  0  0
  2 17  4  0  0  0  0
  2 29  1  0  0  0  0
  3 11  2  0  0  0  0
  3 23  1  0  0  0  0
  3 34  1  0  0  0  0
  4  9  4  0  0  0  0
  4 25  4  0  0  0  0
  4 37  4  0  0  0  0
  5 18  4  0  0  0  0
  5 26  1  0  0  0  0
  5 27  4  0  0  0  0
  6  8  1  0  0  0  0
  7 14  4  0  0  0  0
  7 37  1  0  0  0  0
  8 33  4  0  0  0  0
  8 44  4  0  0  0  0
  9 41  4  0  0  0  0
  9 52  1  0  0  0  0
 10 36  1  0  0  0  0
 12 26  1  0  0  0  0
 13 21  4  0  0  0  0
 13 53  4  0  0  0  0
 14 27  4  0  0  0  0
 14 39  4  0  0  0  0
 15 51  2  0  0  0  0
 16 25  4  0  0  0  0
 16 31  1  0  0  0  0
 16 35  4  0  0  0  0
 17 32  1  0  0  0  0
 17 36  4  0  0  0  0
 18 30  1  0  0  0  0
 18 39  4  0  0  0  0
 19 33  1  0  0  0  0
 20 53  1  0  0  0  0
 21 42  1  0  0  0  0
 21 48  4  0  0  0  0
 22 35  4  0  0  0  0
 22 37  4  0  0  0  0
 22 54  1  0  0  0  0
 24 29  1  0  0  0  0
 24 33  4  0  0  0  0
 24 49  4  0  0  0  0
 25 38  4  0  0  0  0
 26 40  1  0  0  0  0
 26 50  1  0  0  0  0
 27 46  1  0  0  0  0
 28 29  2  0  0  0  0
 34 44  4  0  0  0  0
 34 49  4  0  0  0  0
 35 47  1  0  0  0  0
 36 39  4  0  0  0  0
 38 41  4  0  0  0  0
 38 48  4  0  0  0  0
 41 53  4  0  0  0  0
 43 51  1  0  0  0  0
 44 51  1  0  0  0  0
 45 49  1  0  0  0  0
M  CHG  1   3   1
M  CHG  1  23  -1
M  CHG  1  43  -1
M  CHG  1  51   1
M  END
$$$$
