00097
     RDKit          3D

 54 59  0  0  0  0  0  0  0  0999 V2000
   -3.2896   -6.0301    1.2032 H   0  0  0  0  0  0  0  0  0  0  0  0
    0.1698    1.0254   -0.6842 C   0  0  0  0  0  0  0  0  0  0  0  0
   -2.0462    6.1876   -1.5942 N   0  0  0  0  0  0  0  0  0  0  0  0
   -0.8674   -2.3713   -0.0442 C   0  0  0  0  0  0  0  0  0  0  0  0
    3.9688   -1.6518   -0.6191 C   0  0  0  0  0  0  0  0  0  0  0  0
   -0.4642    5.2385    2.5664 H   0  0  0  0  0  0  0  0  0  0  0  0
    0.5199   -0.3466   -0.7782 C   0  0  0  0  0  0  0  0  0  0  0  0
   -0.7578    4.8494    1.6083 C   0  0  0  0  0  0  0  0  0  0  0  0
   -0.4237   -2.5374    1.2451 N   0  0  0  0  0  0  0  0  0  0  0  0
    3.1815    2.3961   -1.5197 H   0  0  0  0  0  0  0  0  0  0  0  0
   -2.5975    5.9372   -2.6601 O   0  0  0  0  0  0  0  0  0  0  0  0
    4.0387   -3.7855    0.8769 F   0  0  0  0  0  0  0  0  0  0  0  0
   -1.3763   -5.1063    3.7784 N   0  0  0  0  0  0  0  0  0  0  0  0
    1.9090   -0.6509   -0.8057 C   0  0  0  0  0  0  0  0  0  0  0  0
   -0.8146    8.1283    1.1482 O   0  0  0  0  0  0  0  0  0  0  0  0
   -2.2814   -3.5380   -1.6469 C   0  0  0  0  0  0  0  0  0  0  0  0
    1.1000    1.9733   -1.1607 C   0  0  0  0  0  0  0  0  0  0  0  0
    4.1696   -0.2439   -0.8227 C   0  0  0  0  0  0  0  0  0  0  0  0
   -0.5825    2.8006    2.1786 H   0  0  0  0  0  0  0  0  0  0  0  0
   -0.0894   -3.5055    3.8476 H   0  0  0  0  0  0  0  0  0  0  0  0
   -2.2835   -5.8075    3.0515 C   0  0  0  0  0  0  0  0  0  0  0  0
   -1.0932   -1.5120   -2.2834 C   0  0  0  0  0  0  0  0  0  0  0  0
   -1.8759    7.6075   -1.3472 O   0  0  0  0  0  0  0  0  0  0  0  0
   -1.2621    2.9532    0.1199 C   0  0  0  0  0  0  0  0  0  0  0  0
   -1.7586   -3.4364   -0.2935 C   0  0  0  0  0  0  0  0  0  0  0  0
    4.8760   -3.0919   -0.1137 C   0  0  0  0  0  0  0  0  0  0  0  0
    2.6558   -1.8394   -0.7355 N   0  0  0  0  0  0  0  0  0  0  0  0
   -2.0500    0.7577    0.3341 O   0  0  0  0  0  0  0  0  0  0  0  0
   -1.1411    1.4835   -0.0896 C   0  0  0  0  0  0  0  0  0  0  0  0
    5.1092    0.2788   -0.8926 H   0  0  0  0  0  0  0  0  0  0  0  0
   -2.9427   -4.3201   -1.9717 H   0  0  0  0  0  0  0  0  0  0  0  0
    0.8441    2.9901   -1.4523 H   0  0  0  0  0  0  0  0  0  0  0  0
   -0.8710    3.4694    1.3915 C   0  0  0  0  0  0  0  0  0  0  0  0
   -1.6252    5.2598   -0.6512 C   0  0  0  0  0  0  0  0  0  0  0  0
   -1.9210   -2.5759   -2.6000 C   0  0  0  0  0  0  0  0  0  0  0  0
    2.4729    1.6639   -1.2590 C   0  0  0  0  0  0  0  0  0  0  0  0
   -0.4699   -1.3872   -0.9962 C   0  0  0  0  0  0  0  0  0  0  0  0
   -1.8948   -4.2486    1.0415 C   0  0  0  0  0  0  0  0  0  0  0  0
    2.8804    0.3482   -0.9329 C   0  0  0  0  0  0  0  0  0  0  0  0
    6.1020   -2.6772    0.4012 F   0  0  0  0  0  0  0  0  0  0  0  0
   -1.0190   -3.6103    1.9261 C   0  0  0  0  0  0  0  0  0  0  0  0
   -2.7709   -6.6468    3.5612 H   0  0  0  0  0  0  0  0  0  0  0  0
    0.9982    7.0197    0.9748 O   0  0  0  0  0  0  0  0  0  0  0  0
   -0.9788    5.7409    0.5702 C   0  0  0  0  0  0  0  0  0  0  0  0
   -2.2137    3.5116   -1.7914 H   0  0  0  0  0  0  0  0  0  0  0  0
    2.1965   -2.8166   -0.8348 H   0  0  0  0  0  0  0  0  0  0  0  0
   -2.3106   -2.6874   -3.6115 H   0  0  0  0  0  0  0  0  0  0  0  0
   -2.5705   -5.4192    1.7298 C   0  0  0  0  0  0  0  0  0  0  0  0
   -1.7751    3.8752   -0.8571 C   0  0  0  0  0  0  0  0  0  0  0  0
    4.9271   -3.9710   -1.2058 F   0  0  0  0  0  0  0  0  0  0  0  0
   -0.3498    7.0657    0.8687 N   0  0  0  0  0  0  0  0  0  0  0  0
    0.2932   -1.8969    1.6538 H   0  0  0  0  0  0  0  0  0  0  0  0
   -0.7642   -4.0582    3.2373 C   0  0  0  0  0  0  0  0  0  0  0  0
   -0.8805   -0.7916   -3.0592 H   0  0  0  0  0  0  0  0  0  0  0  0
  1 48  1  0
  2  7  4  0
  2 17  4  0
  2 29  1  0
  3 11  2  0
  3 23  1  0
  3 34  1  0
  4  9  4  0
  4 25  4  0
  4 37  4  0
  5 18  4  0
  5 26  1  0
  5 27  4  0
  6  8  1  0
  7 14  4  0
  7 37  1  0
  8 33  4  0
  8 44  4  0
  9 41  4  0
  9 52  1  0
 10 36  1  0
 12 26  1  0
 13 21  4  0
 13 53  4  0
 14 27  4  0
 14 39  4  0
 15 51  2  0
 16 25  4  0
 16 31  1  0
 16 35  4  0
 17 32  1  0
 17 36  4  0
 18 30  1  0
 18 39  4  0
 19 33  1  0
 20 53  1  0
 21 42  1  0
 21 48  4  0
 22 35  4  0
 22 37  4  0
 22 54  1  0
 24 29  1  0
 24 33  4  0
 24 49  4  0
 25 38  4  0
 26 40  1  0
 26 50  1  0
 27 46  1  0
 28 29  2  0
 34 44  4  0
 34 49  4  0
 35 47  1  0
 36 39  4  0
 38 41  4  0
 38 48  4  0
 41 53  4  0
 43 51  1  0
 44 51  1  0
 45 49  1  0
M  CHG  4   3   1  23  -1  43  -1  51   1
M  END
>  <generation_index>  (1) 
97

>  <target_raw_property>  (1) 
0.5

>  <num_atoms>  (1) 
54

>  <sanitize_ok>  (1) 
True

>  <single_component>  (1) 
True

>  <canonical_smiles>  (1) 
[H]c1nc([H])c2c(c1[H])c1c([H])c([H])c([H])c(-c3c(C(=O)c4c([H])c([H])c([N+](=O)[O-])c([N+](=O)[O-])c4[H])c([H])c([H])c4c([H])c(C(F)(F)F)n([H])c34)c1n2[H]

>  <is_unique_generated>  (1) 
True

>  <dataset_membership_checked>  (1) 
True

>  <in_train_dataset>  (1) 
False

>  <in_val_dataset>  (1) 
False

>  <in_test_dataset>  (1) 
False

>  <in_any_dataset>  (1) 
False

>  <is_novel>  (1) 
True

$$$$
