00030
     RDKit          3D

 62 70  0  0  0  0  0  0  0  0999 V2000
    3.2413    5.9202    7.2706 H   0  0  0  0  0  0  0  0  0  0  0  0
    0.5803    0.0889   -1.1931 C   0  0  0  0  0  0  0  0  0  0  0  0
   -2.7488    4.2692    0.5481 H   0  0  0  0  0  0  0  0  0  0  0  0
   -1.2502   -4.0458   -3.2217 N   0  0  0  0  0  0  0  0  0  0  0  0
   -3.7868   -4.4852   -3.7310 H   0  0  0  0  0  0  0  0  0  0  0  0
    1.7124    2.9567    3.5243 C   0  0  0  0  0  0  0  0  0  0  0  0
   -3.8270   -6.5818   -4.1094 C   0  0  0  0  0  0  0  0  0  0  0  0
    2.0924   -2.9238   -1.1927 H   0  0  0  0  0  0  0  0  0  0  0  0
   -1.7058   -0.1221   -5.9721 H   0  0  0  0  0  0  0  0  0  0  0  0
    3.0998   -1.1920    0.5920 H   0  0  0  0  0  0  0  0  0  0  0  0
   -0.8323    5.4452    4.2584 C   0  0  0  0  0  0  0  0  0  0  0  0
    0.3256    1.0860   -0.3950 N   0  0  0  0  0  0  0  0  0  0  0  0
    1.9810    4.8487    5.6518 C   0  0  0  0  0  0  0  0  0  0  0  0
   -2.4653    7.0039    4.5582 H   0  0  0  0  0  0  0  0  0  0  0  0
   -0.7645   -1.3043   -4.4473 C   0  0  0  0  0  0  0  0  0  0  0  0
    4.1716    2.4834    4.9884 H   0  0  0  0  0  0  0  0  0  0  0  0
   -2.0216    6.2216    3.9881 C   0  0  0  0  0  0  0  0  0  0  0  0
    4.0415    4.1556    6.3002 N   0  0  0  0  0  0  0  0  0  0  0  0
    3.0778    5.1358    6.5267 C   0  0  0  0  0  0  0  0  0  0  0  0
   -2.5219    5.7722    2.7972 C   0  0  0  0  0  0  0  0  0  0  0  0
   -0.4075    5.5941    5.1581 H   0  0  0  0  0  0  0  0  0  0  0  0
   -1.1136   -9.0465   -4.0214 C   0  0  0  0  0  0  0  0  0  0  0  0
   -0.5378  -10.1652   -4.0555 N   0  0  0  0  0  0  0  0  0  0  0  0
   -1.0226    2.9506    0.7712 C   0  0  0  0  0  0  0  0  0  0  0  0
   -3.0768   -7.7631   -4.1726 C   0  0  0  0  0  0  0  0  0  0  0  0
    0.1494    2.5426    1.4823 C   0  0  0  0  0  0  0  0  0  0  0  0
   -1.8722    3.9855    1.1491 C   0  0  0  0  0  0  0  0  0  0  0  0
    1.9436    0.5979    1.1449 C   0  0  0  0  0  0  0  0  0  0  0  0
   -0.4256    1.1105   -3.2069 C   0  0  0  0  0  0  0  0  0  0  0  0
    0.4309    3.2934    2.7408 C   0  0  0  0  0  0  0  0  0  0  0  0
   -0.3520    2.0909   -2.7797 H   0  0  0  0  0  0  0  0  0  0  0  0
   -1.0263    1.0327   -4.3790 N   0  0  0  0  0  0  0  0  0  0  0  0
    2.7140    0.9986    2.2776 C   0  0  0  0  0  0  0  0  0  0  0  0
   -1.2870    2.4451   -0.1575 H   0  0  0  0  0  0  0  0  0  0  0  0
    2.3676    1.9418    3.0639 N   0  0  0  0  0  0  0  0  0  0  0  0
    1.8975   -5.0493   -2.6596 H   0  0  0  0  0  0  0  0  0  0  0  0
    1.4088   -2.1607   -1.4842 C   0  0  0  0  0  0  0  0  0  0  0  0
    1.1013    5.4760    5.7438 H   0  0  0  0  0  0  0  0  0  0  0  0
    3.6553    0.4793    2.5243 H   0  0  0  0  0  0  0  0  0  0  0  0
    0.3507   -6.2941   -3.2264 N   0  0  0  0  0  0  0  0  0  0  0  0
    2.2461   -0.5710    0.3518 C   0  0  0  0  0  0  0  0  0  0  0  0
    1.4154   -0.9039   -0.7585 C   0  0  0  0  0  0  0  0  0  0  0  0
   -0.0938   -1.2678   -3.1680 C   0  0  0  0  0  0  0  0  0  0  0  0
    2.3159    3.6744    4.7414 C   0  0  0  0  0  0  0  0  0  0  0  0
    0.4964   -2.4213   -2.5501 C   0  0  0  0  0  0  0  0  0  0  0  0
    0.8821   -5.0663   -2.9353 C   0  0  0  0  0  0  0  0  0  0  0  0
   -0.9536   -2.2112   -4.9766 H   0  0  0  0  0  0  0  0  0  0  0  0
   -1.0163   -6.4557   -3.5435 C   0  0  0  0  0  0  0  0  0  0  0  0
   -1.6728    4.7029    2.2968 C   0  0  0  0  0  0  0  0  0  0  0  0
    3.5857    3.3116    5.2982 C   0  0  0  0  0  0  0  0  0  0  0  0
    4.9567    4.1266    6.7744 H   0  0  0  0  0  0  0  0  0  0  0  0
   -1.8050   -5.2747   -3.4941 C   0  0  0  0  0  0  0  0  0  0  0  0
   -1.6809   -7.7166   -3.8879 C   0  0  0  0  0  0  0  0  0  0  0  0
    0.0068   -0.0160   -2.5145 C   0  0  0  0  0  0  0  0  0  0  0  0
   -0.5812    4.4041    3.1101 C   0  0  0  0  0  0  0  0  0  0  0  0
   -3.2087   -5.4017   -3.7803 C   0  0  0  0  0  0  0  0  0  0  0  0
   -1.2083   -0.1306   -5.0338 C   0  0  0  0  0  0  0  0  0  0  0  0
   -4.9112   -6.6102   -4.3402 H   0  0  0  0  0  0  0  0  0  0  0  0
   -3.4108    6.1556    2.3005 H   0  0  0  0  0  0  0  0  0  0  0  0
    0.0748   -3.8425   -2.9236 C   0  0  0  0  0  0  0  0  0  0  0  0
    0.8445    1.4052    0.8006 C   0  0  0  0  0  0  0  0  0  0  0  0
   -3.5790   -8.6833   -4.4221 H   0  0  0  0  0  0  0  0  0  0  0  0
  1 19  1  0
  2 12  4  0
  2 42  4  0
  2 54  4  0
  3 27  1  0
  4 52  4  0
  4 60  4  0
  5 56  1  0
  6 30  4  0
  6 35  4  0
  6 44  1  0
  7 25  4  0
  7 56  4  0
  7 58  1  0
  8 37  1  0
  9 57  1  0
 10 41  1  0
 11 17  4  0
 11 21  1  0
 11 55  4  0
 12 61  4  0
 13 19  4  0
 13 38  1  0
 13 44  4  0
 14 17  1  0
 15 43  4  0
 15 47  1  0
 15 57  4  0
 16 50  1  0
 17 20  4  0
 18 19  4  0
 18 50  4  0
 18 51  1  0
 20 49  4  0
 20 59  1  0
 22 23  3  0
 22 53  1  0
 24 26  4  0
 24 27  4  0
 24 34  1  0
 25 53  4  0
 25 62  1  0
 26 30  4  0
 26 61  4  0
 27 49  4  0
 28 33  4  0
 28 41  4  0
 28 61  4  0
 29 31  1  0
 29 32  4  0
 29 54  4  0
 30 55  4  0
 32 57  4  0
 33 35  4  0
 33 39  1  0
 36 46  1  0
 37 42  4  0
 37 45  4  0
 40 46  4  0
 40 48  4  0
 41 42  4  0
 43 45  4  0
 43 54  4  0
 44 50  4  0
 45 60  1  0
 46 60  4  0
 48 52  4  0
 48 53  4  0
 49 55  4  0
 52 56  4  0
M  END
>  <generation_index>  (1) 
30

>  <target_raw_property>  (1) 
0.5

>  <num_atoms>  (1) 
62

>  <sanitize_ok>  (1) 
True

>  <single_component>  (1) 
True

>  <canonical_smiles>  (1) 
[H]c1nc2c(C#N)c([H])c([H])c([H])c2nc1-c1c([H])c2c([H])c3c([H])nc(-c4c([H])c([H])n([H])c4[H])c4c5c([H])c([H])c([H])c5c([H])c([H])c4c3nc2c2c([H])nc([H])c([H])c12

>  <is_unique_generated>  (1) 
True

>  <dataset_membership_checked>  (1) 
True

>  <in_train_dataset>  (1) 
False

>  <in_val_dataset>  (1) 
False

>  <in_test_dataset>  (1) 
False

>  <in_any_dataset>  (1) 
False

>  <is_novel>  (1) 
True

$$$$
