00086
     RDKit          3D

 95107  0  0  0  0  0  0  0  0999 V2000
   -4.7583   -5.2629   -2.5201 C   0  0  0  0  0  0  0  0  0  0  0  0
   -1.2806    5.0652   -2.3335 C   0  0  0  0  0  0  0  0  0  0  0  0
   -3.7507    8.8329   -1.6052 S   0  0  0  0  0  0  0  0  0  0  0  0
    3.7670   -1.5843   -1.7098 C   0  0  0  0  0  0  0  0  0  0  0  0
    2.2383   -7.5926   -4.1925 H   0  0  0  0  0  0  0  0  0  0  0  0
    0.8107    1.9510    1.2039 H   0  0  0  0  0  0  0  0  0  0  0  0
    0.8748    5.8019    0.3919 C   0  0  0  0  0  0  0  0  0  0  0  0
    3.1720   -0.6271    2.5796 C   0  0  0  0  0  0  0  0  0  0  0  0
    0.1220   -2.7472    5.3508 C   0  0  0  0  0  0  0  0  0  0  0  0
    3.1510    6.4812    1.4526 C   0  0  0  0  0  0  0  0  0  0  0  0
    3.1173    0.7404    2.7905 C   0  0  0  0  0  0  0  0  0  0  0  0
    4.1645   -5.6180   -4.5151 H   0  0  0  0  0  0  0  0  0  0  0  0
    4.4520   -0.8493   -2.0762 H   0  0  0  0  0  0  0  0  0  0  0  0
    4.1488   -1.0921    2.6455 H   0  0  0  0  0  0  0  0  0  0  0  0
    0.5298    2.4675   -3.8645 H   0  0  0  0  0  0  0  0  0  0  0  0
    1.5004   -7.2761   -3.4490 C   0  0  0  0  0  0  0  0  0  0  0  0
   -2.2285    5.5454   -3.3140 C   0  0  0  0  0  0  0  0  0  0  0  0
    3.7502   -2.8925   -2.4664 C   0  0  0  0  0  0  0  0  0  0  0  0
   -3.8300    6.9616   -3.7062 H   0  0  0  0  0  0  0  0  0  0  0  0
   -5.3607   -6.8063   -0.7513 C   0  0  0  0  0  0  0  0  0  0  0  0
    0.8655    1.3620    5.0850 H   0  0  0  0  0  0  0  0  0  0  0  0
    3.8659   -4.9084   -3.8216 C   0  0  0  0  0  0  0  0  0  0  0  0
   -3.8142    6.5334    0.6040 H   0  0  0  0  0  0  0  0  0  0  0  0
   -0.4600   -6.5807   -1.5682 C   0  0  0  0  0  0  0  0  0  0  0  0
    0.1595   -4.4592    0.4538 C   0  0  0  0  0  0  0  0  0  0  0  0
    2.3408    4.1884    4.2543 N   0  0  0  0  0  0  0  0  0  0  0  0
    3.0580   -0.3732   -0.0624 H   0  0  0  0  0  0  0  0  0  0  0  0
    4.4771   -3.6026   -3.6127 C   0  0  0  0  0  0  0  0  0  0  0  0
    1.5414   -2.4335    1.2314 C   0  0  0  0  0  0  0  0  0  0  0  0
    0.5071   -2.8551    3.8943 C   0  0  0  0  0  0  0  0  0  0  0  0
    1.2492    0.6444    4.3025 C   0  0  0  0  0  0  0  0  0  0  0  0
    4.1714    5.6439    3.1295 H   0  0  0  0  0  0  0  0  0  0  0  0
   -5.7851    8.2479   -0.4674 H   0  0  0  0  0  0  0  0  0  0  0  0
    0.7100   -5.7067   -1.6378 C   0  0  0  0  0  0  0  0  0  0  0  0
    1.2311   -1.7132    3.5331 C   0  0  0  0  0  0  0  0  0  0  0  0
    1.7059   -6.0306   -2.6954 C   0  0  0  0  0  0  0  0  0  0  0  0
    4.0148    1.3817    2.7744 H   0  0  0  0  0  0  0  0  0  0  0  0
    1.9227   -3.5580   -0.9298 C   0  0  0  0  0  0  0  0  0  0  0  0
    3.9937    7.2259    1.3471 H   0  0  0  0  0  0  0  0  0  0  0  0
    1.9561   -1.5541    2.3399 C   0  0  0  0  0  0  0  0  0  0  0  0
   -1.6698   -5.3478    1.3188 H   0  0  0  0  0  0  0  0  0  0  0  0
   -2.6751   -4.7549   -2.6862 H   0  0  0  0  0  0  0  0  0  0  0  0
    3.0841    4.0254    4.8488 H   0  0  0  0  0  0  0  0  0  0  0  0
   -0.5803   -7.6568   -2.3050 N   0  0  0  0  0  0  0  0  0  0  0  0
   -3.0617    6.3923   -0.1618 C   0  0  0  0  0  0  0  0  0  0  0  0
   -5.0533   -4.5609   -3.2857 H   0  0  0  0  0  0  0  0  0  0  0  0
   -3.3903   -5.3656   -2.1218 C   0  0  0  0  0  0  0  0  0  0  0  0
   -0.2009    3.2936   -3.9071 C   0  0  0  0  0  0  0  0  0  0  0  0
    2.1033    6.5761    0.5319 C   0  0  0  0  0  0  0  0  0  0  0  0
   -5.3042    9.9557   -0.1375 H   0  0  0  0  0  0  0  0  0  0  0  0
   -3.9897   -6.8114   -0.3011 C   0  0  0  0  0  0  0  0  0  0  0  0
   -0.3743   -3.4339    5.9329 H   0  0  0  0  0  0  0  0  0  0  0  0
   -6.0063    9.6854   -1.6642 H   0  0  0  0  0  0  0  0  0  0  0  0
   -1.4854   -6.1036   -0.6630 C   0  0  0  0  0  0  0  0  0  0  0  0
   -0.4158    3.9616   -2.7544 C   0  0  0  0  0  0  0  0  0  0  0  0
   -0.5718    3.4094   -4.8836 H   0  0  0  0  0  0  0  0  0  0  0  0
   -0.4922   -4.5883    3.1489 H   0  0  0  0  0  0  0  0  0  0  0  0
   -5.3028    9.1973   -0.9006 C   0  0  0  0  0  0  0  0  0  0  0  0
    1.0507   -0.7309    4.5514 C   0  0  0  0  0  0  0  0  0  0  0  0
    0.2093   -9.0729   -3.7251 H   0  0  0  0  0  0  0  0  0  0  0  0
    2.7817   -3.7761   -2.0584 C   0  0  0  0  0  0  0  0  0  0  0  0
    1.0319    2.3679    2.2678 C   0  0  0  0  0  0  0  0  0  0  0  0
    3.2306    5.5273    2.4908 C   0  0  0  0  0  0  0  0  0  0  0  0
   -1.7961    5.6339    0.1016 C   0  0  0  0  0  0  0  0  0  0  0  0
   -1.0343   -5.3599    0.5018 C   0  0  0  0  0  0  0  0  0  0  0  0
   -3.1779    6.5566   -2.9207 C   0  0  0  0  0  0  0  0  0  0  0  0
    2.2723    4.5258    2.8807 C   0  0  0  0  0  0  0  0  0  0  0  0
   -0.0051    2.3020    2.7195 H   0  0  0  0  0  0  0  0  0  0  0  0
    0.3678   -8.0913   -3.2081 C   0  0  0  0  0  0  0  0  0  0  0  0
    0.9514   -4.6022   -0.7291 C   0  0  0  0  0  0  0  0  0  0  0  0
    2.7454   -4.9736   -2.8862 C   0  0  0  0  0  0  0  0  0  0  0  0
    2.1443   -2.4218   -0.0704 C   0  0  0  0  0  0  0  0  0  0  0  0
    1.4008    4.0894    4.6914 H   0  0  0  0  0  0  0  0  0  0  0  0
    0.2141    3.4815   -1.9717 H   0  0  0  0  0  0  0  0  0  0  0  0
    0.3279   -0.9820    6.7068 H   0  0  0  0  0  0  0  0  0  0  0  0
   -3.3178    7.0472   -1.5413 C   0  0  0  0  0  0  0  0  0  0  0  0
    0.4952   -1.4152    5.7640 C   0  0  0  0  0  0  0  0  0  0  0  0
   -1.7898    4.5061    2.0252 H   0  0  0  0  0  0  0  0  0  0  0  0
    0.1705   -3.7416    2.8783 C   0  0  0  0  0  0  0  0  0  0  0  0
   -6.8026   -5.9430   -2.1400 H   0  0  0  0  0  0  0  0  0  0  0  0
    2.9922   -1.3607   -0.5441 C   0  0  0  0  0  0  0  0  0  0  0  0
    0.6307   -3.5139    1.5117 C   0  0  0  0  0  0  0  0  0  0  0  0
    1.1790    3.9195    2.1110 C   0  0  0  0  0  0  0  0  0  0  0  0
   -2.9368   -6.1414   -1.0094 C   0  0  0  0  0  0  0  0  0  0  0  0
   -6.1358   -7.3764   -0.2603 H   0  0  0  0  0  0  0  0  0  0  0  0
    0.3092    4.8131    1.2593 C   0  0  0  0  0  0  0  0  0  0  0  0
   -5.7427   -5.9924   -1.8432 C   0  0  0  0  0  0  0  0  0  0  0  0
    5.2399   -3.2783   -4.1321 H   0  0  0  0  0  0  0  0  0  0  0  0
   -1.1501    4.9144    1.2683 C   0  0  0  0  0  0  0  0  0  0  0  0
    2.2720    7.4070   -0.2392 H   0  0  0  0  0  0  0  0  0  0  0  0
   -3.7725   -7.3416    0.6175 H   0  0  0  0  0  0  0  0  0  0  0  0
   -1.0098    5.6524   -1.0429 C   0  0  0  0  0  0  0  0  0  0  0  0
    0.2109    6.1195   -0.7263 N   0  0  0  0  0  0  0  0  0  0  0  0
   -2.2560    5.2125   -4.3779 H   0  0  0  0  0  0  0  0  0  0  0  0
    1.7850    1.2148    3.0053 C   0  0  0  0  0  0  0  0  0  0  0  0
  1 46  1  0
  1 47  4  0
  1 87  4  0
  2 17  2  0
  2 55  1  0
  2 92  1  0
  3 58  1  0
  3 76  1  0
  4 13  1  0
  4 18  4  0
  4 81  4  0
  5 16  1  0
  6 62  1  0
  7 49  2  0
  7 86  4  0
  7 93  4  0
  8 11  4  0
  8 14  1  0
  8 40  4  0
  9 30  4  0
  9 52  1  0
  9 77  4  0
 10 39  1  0
 10 49  1  0
 10 63  2  0
 11 37  1  0
 11 95  4  0
 12 22  1  0
 15 48  1  0
 16 36  4  0
 16 69  4  0
 17 66  1  0
 17 94  1  0
 18 28  4  0
 18 61  4  0
 19 66  1  0
 20 51  4  0
 20 85  1  0
 20 87  4  0
 21 31  1  0
 22 28  4  0
 22 71  4  0
 23 45  1  0
 24 34  4  0
 24 44  4  0
 24 54  4  0
 25 65  4  0
 25 70  4  0
 25 82  4  0
 26 43  1  0
 26 67  1  0
 26 73  1  0
 27 81  1  0
 28 88  1  0
 29 40  4  0
 29 72  4  0
 29 82  4  0
 30 35  4  0
 30 79  4  0
 31 59  4  0
 31 95  4  0
 32 63  1  0
 33 58  1  0
 34 36  4  0
 34 70  4  0
 35 40  4  0
 35 59  4  0
 36 71  4  0
 38 61  4  0
 38 70  4  0
 38 72  4  0
 41 65  1  0
 42 47  1  0
 44 69  4  0
 45 64  2  0
 45 76  1  0
 47 84  4  0
 48 55  2  0
 48 56  1  0
 49 90  1  0
 50 58  1  0
 51 84  4  0
 51 91  1  0
 53 58  1  0
 54 65  4  0
 54 84  1  0
 55 74  1  0
 57 79  1  0
 59 77  4  0
 60 69  1  0
 61 71  4  0
 62 68  1  0
 62 83  1  0
 62 95  1  0
 63 67  1  0
 64 89  4  0
 64 92  4  0
 66 76  2  0
 67 83  2  0
 72 81  4  0
 75 77  1  0
 78 89  1  0
 79 82  4  0
 80 87  1  0
 83 86  1  0
 86 89  4  0
 92 93  4  0
M  END
>  <generation_index>  (1) 
86

>  <target_raw_property>  (1) 
0.5

>  <num_atoms>  (1) 
95

>  <sanitize_ok>  (1) 
True

>  <single_component>  (1) 
True

>  <canonical_smiles>  (1) 
[H]C([H])=C([H])C1=C([H])C([H])=C(SC([H])([H])[H])C([H])=c2c1nc1c(c2[H])C(C([H])([H])c2c([H])c([H])c3c4c(c2[H])c([H])c([H])c4c([H])c2c4c([H])c(-c5c([H])c([H])c([H])c([H])c5[H])c5nc([H])c([H])c6c7c([H])c([H])c8c([H])c([H])c(c23)c(c87)c4c56)=C(N([H])[H])C([H])=C([H])C=1[H]

>  <is_unique_generated>  (1) 
True

>  <dataset_membership_checked>  (1) 
True

>  <in_train_dataset>  (1) 
False

>  <in_val_dataset>  (1) 
False

>  <in_test_dataset>  (1) 
False

>  <in_any_dataset>  (1) 
False

>  <is_novel>  (1) 
True

$$$$
