 energy: -149.679483383762 gnorm: 0.002642686398 xtb: 6.7.1 (edcfbbe)
          08252607103D

 95107  0     0  0            999 V2000
   -3.0970   -9.2375   -0.7904 C   0  0  0  0  0  0  0  0  0  0  0  0
    0.0780    4.0732   -2.1797 C   0  0  0  0  0  0  0  0  0  0  0  0
   -4.3538    5.5886   -0.7870 S   0  0  0  0  0  0  0  0  0  0  0  0
    1.8320    0.0062   -2.6183 C   0  0  0  0  0  0  0  0  0  0  0  0
    1.9351   -5.9440   -4.8075 H   0  0  0  0  0  0  0  0  0  0  0  0
    0.3305    4.2465    4.1415 H   0  0  0  0  0  0  0  0  0  0  0  0
    2.2702    5.0706    0.4936 C   0  0  0  0  0  0  0  0  0  0  0  0
    1.0606    0.5731    1.4526 C   0  0  0  0  0  0  0  0  0  0  0  0
   -3.0021   -0.8735    3.4386 C   0  0  0  0  0  0  0  0  0  0  0  0
    4.3898    5.9156    1.5135 C   0  0  0  0  0  0  0  0  0  0  0  0
    1.3230    1.6349    2.2716 C   0  0  0  0  0  0  0  0  0  0  0  0
    2.9057   -3.5558   -5.4786 H   0  0  0  0  0  0  0  0  0  0  0  0
    2.2078    0.9453   -2.9973 H   0  0  0  0  0  0  0  0  0  0  0  0
    1.8904    0.2488    0.8371 H   0  0  0  0  0  0  0  0  0  0  0  0
    2.0751    2.9092   -4.7634 H   0  0  0  0  0  0  0  0  0  0  0  0
    1.3047   -5.9075   -3.9325 C   0  0  0  0  0  0  0  0  0  0  0  0
   -1.2203    4.0142   -2.6919 C   0  0  0  0  0  0  0  0  0  0  0  0
    2.0608   -1.1881   -3.2989 C   0  0  0  0  0  0  0  0  0  0  0  0
   -3.2710    4.4346   -2.8517 H   0  0  0  0  0  0  0  0  0  0  0  0
   -2.5034   -8.8202    1.4918 C   0  0  0  0  0  0  0  0  0  0  0  0
   -1.1820    2.5479    4.4267 H   0  0  0  0  0  0  0  0  0  0  0  0
    2.5140   -2.9721   -4.6644 C   0  0  0  0  0  0  0  0  0  0  0  0
   -2.2650    5.3798    1.1046 H   0  0  0  0  0  0  0  0  0  0  0  0
   -0.3450   -5.9542   -1.7429 C   0  0  0  0  0  0  0  0  0  0  0  0
   -0.8341   -3.6122   -0.1875 C   0  0  0  0  0  0  0  0  0  0  0  0
    3.8358    3.8974    4.5251 N   0  0  0  0  0  0  0  0  0  0  0  0
    0.8967    0.9562   -0.9715 H   0  0  0  0  0  0  0  0  0  0  0  0
    2.7290   -1.6157   -4.4828 C   0  0  0  0  0  0  0  0  0  0  0  0
   -0.1799   -1.2569    0.3444 C   0  0  0  0  0  0  0  0  0  0  0  0
   -2.0910   -1.2143    2.3854 C   0  0  0  0  0  0  0  0  0  0  0  0
   -0.7187    1.9270    3.6665 C   0  0  0  0  0  0  0  0  0  0  0  0
    5.2299    5.5429    3.3910 H   0  0  0  0  0  0  0  0  0  0  0  0
   -3.5029    7.3261    0.6470 H   0  0  0  0  0  0  0  0  0  0  0  0
    0.2772   -4.7288   -2.0880 C   0  0  0  0  0  0  0  0  0  0  0  0
   -1.1158   -0.1883    2.3105 C   0  0  0  0  0  0  0  0  0  0  0  0
    1.1233   -4.7010   -3.2473 C   0  0  0  0  0  0  0  0  0  0  0  0
    2.3232    2.0436    2.1693 H   0  0  0  0  0  0  0  0  0  0  0  0
    0.6658   -2.3638   -1.6410 C   0  0  0  0  0  0  0  0  0  0  0  0
    5.2555    6.5281    1.2944 H   0  0  0  0  0  0  0  0  0  0  0  0
   -0.1071   -0.2322    1.3415 C   0  0  0  0  0  0  0  0  0  0  0  0
   -2.1159   -4.9161    0.9665 H   0  0  0  0  0  0  0  0  0  0  0  0
   -2.4791   -7.7570   -2.2055 H   0  0  0  0  0  0  0  0  0  0  0  0
    4.8206    3.9897    4.7189 H   0  0  0  0  0  0  0  0  0  0  0  0
   -0.1255   -7.0864   -2.4210 N   0  0  0  0  0  0  0  0  0  0  0  0
   -1.8360    5.0788    0.1576 C   0  0  0  0  0  0  0  0  0  0  0  0
   -3.5699   -9.8606   -1.5355 H   0  0  0  0  0  0  0  0  0  0  0  0
   -2.4834   -8.0589   -1.1703 C   0  0  0  0  0  0  0  0  0  0  0  0
    1.1720    3.2269   -4.2704 C   0  0  0  0  0  0  0  0  0  0  0  0
    3.5149    5.7093    0.4643 C   0  0  0  0  0  0  0  0  0  0  0  0
   -5.2801    7.2540    0.5917 H   0  0  0  0  0  0  0  0  0  0  0  0
   -1.8934   -7.6380    1.1161 C   0  0  0  0  0  0  0  0  0  0  0  0
   -3.8444   -1.4703    3.7377 H   0  0  0  0  0  0  0  0  0  0  0  0
   -4.3944    6.0818    1.5864 H   0  0  0  0  0  0  0  0  0  0  0  0
   -1.2211   -5.9850   -0.6078 C   0  0  0  0  0  0  0  0  0  0  0  0
    1.1919    3.6211   -2.9975 C   0  0  0  0  0  0  0  0  0  0  0  0
    0.2841    3.2035   -4.8791 H   0  0  0  0  0  0  0  0  0  0  0  0
   -2.6838   -3.1450    1.7215 H   0  0  0  0  0  0  0  0  0  0  0  0
   -4.3684    6.6705    0.6735 C   0  0  0  0  0  0  0  0  0  0  0  0
   -1.4164    0.7683    3.3344 C   0  0  0  0  0  0  0  0  0  0  0  0
    0.8159   -7.9996   -3.9694 H   0  0  0  0  0  0  0  0  0  0  0  0
    1.4377   -2.3451   -2.7783 C   0  0  0  0  0  0  0  0  0  0  0  0
    1.1279    3.5623    3.8372 C   0  0  0  0  0  0  0  0  0  0  0  0
    4.3654    5.3499    2.7673 C   0  0  0  0  0  0  0  0  0  0  0  0
   -0.4592    4.7863    0.2206 C   0  0  0  0  0  0  0  0  0  0  0  0
   -1.4459   -4.8448    0.1229 C   0  0  0  0  0  0  0  0  0  0  0  0
   -2.4120    4.4871   -2.1945 C   0  0  0  0  0  0  0  0  0  0  0  0
    3.4096    4.4834    3.3464 C   0  0  0  0  0  0  0  0  0  0  0  0
    1.6156    3.2638    4.7670 H   0  0  0  0  0  0  0  0  0  0  0  0
    0.6753   -7.0495   -3.4681 C   0  0  0  0  0  0  0  0  0  0  0  0
    0.0389   -3.5841   -1.2901 C   0  0  0  0  0  0  0  0  0  0  0  0
    1.7001   -3.4622   -3.6154 C   0  0  0  0  0  0  0  0  0  0  0  0
    0.5450   -1.1663   -0.8796 C   0  0  0  0  0  0  0  0  0  0  0  0
    3.4636    2.9963    4.7709 H   0  0  0  0  0  0  0  0  0  0  0  0
    2.1384    3.6374   -2.4744 H   0  0  0  0  0  0  0  0  0  0  0  0
   -3.0888    0.8363    4.7891 H   0  0  0  0  0  0  0  0  0  0  0  0
   -2.6767    5.0293   -0.9273 C   0  0  0  0  0  0  0  0  0  0  0  0
   -2.6080    0.3136    3.9822 C   0  0  0  0  0  0  0  0  0  0  0  0
   -0.5194    4.7072    2.3296 H   0  0  0  0  0  0  0  0  0  0  0  0
   -1.9820   -2.3364    1.5869 C   0  0  0  0  0  0  0  0  0  0  0  0
   -3.5826  -10.5486    0.8336 H   0  0  0  0  0  0  0  0  0  0  0  0
    1.0950    0.0037   -1.4436 C   0  0  0  0  0  0  0  0  0  0  0  0
   -1.0061   -2.4079    0.5859 C   0  0  0  0  0  0  0  0  0  0  0  0
    2.0901    4.2981    2.9259 C   0  0  0  0  0  0  0  0  0  0  0  0
   -1.8716   -7.2439   -0.2206 C   0  0  0  0  0  0  0  0  0  0  0  0
   -2.5040   -9.1185    2.5306 H   0  0  0  0  0  0  0  0  0  0  0  0
    1.5293    4.7110    1.6864 C   0  0  0  0  0  0  0  0  0  0  0  0
   -3.1075   -9.6239    0.5397 C   0  0  0  0  0  0  0  0  0  0  0  0
    3.3052   -0.9844   -5.1359 H   0  0  0  0  0  0  0  0  0  0  0  0
    0.1462    4.7224    1.4807 C   0  0  0  0  0  0  0  0  0  0  0  0
    3.7937    6.0932   -0.5070 H   0  0  0  0  0  0  0  0  0  0  0  0
   -1.4043   -7.0247    1.8597 H   0  0  0  0  0  0  0  0  0  0  0  0
    0.4378    4.5703   -0.8913 C   0  0  0  0  0  0  0  0  0  0  0  0
    1.7176    4.8412   -0.6933 N   0  0  0  0  0  0  0  0  0  0  0  0
   -1.2941    3.5885   -3.6834 H   0  0  0  0  0  0  0  0  0  0  0  0
    0.5173    2.3288    3.2042 C   0  0  0  0  0  0  0  0  0  0  0  0
  1 46  1  0  0  0  0
  1 47  4  0  0  0  0
  1 87  4  0  0  0  0
  2 17  2  0  0  0  0
  2 55  1  0  0  0  0
  2 92  1  0  0  0  0
  3 58  1  0  0  0  0
  3 76  1  0  0  0  0
  4 13  1  0  0  0  0
  4 18  4  0  0  0  0
  4 81  4  0  0  0  0
  5 16  1  0  0  0  0
  6 62  1  0  0  0  0
  7 49  2  0  0  0  0
  7 86  4  0  0  0  0
  7 93  4  0  0  0  0
  8 11  4  0  0  0  0
  8 14  1  0  0  0  0
  8 40  4  0  0  0  0
  9 30  4  0  0  0  0
  9 52  1  0  0  0  0
  9 77  4  0  0  0  0
 10 39  1  0  0  0  0
 10 49  1  0  0  0  0
 10 63  2  0  0  0  0
 11 37  1  0  0  0  0
 11 95  4  0  0  0  0
 12 22  1  0  0  0  0
 15 48  1  0  0  0  0
 16 36  4  0  0  0  0
 16 69  4  0  0  0  0
 17 66  1  0  0  0  0
 17 94  1  0  0  0  0
 18 28  4  0  0  0  0
 18 61  4  0  0  0  0
 19 66  1  0  0  0  0
 20 51  4  0  0  0  0
 20 85  1  0  0  0  0
 20 87  4  0  0  0  0
 21 31  1  0  0  0  0
 22 28  4  0  0  0  0
 22 71  4  0  0  0  0
 23 45  1  0  0  0  0
 24 34  4  0  0  0  0
 24 44  4  0  0  0  0
 24 54  4  0  0  0  0
 25 65  4  0  0  0  0
 25 70  4  0  0  0  0
 25 82  4  0  0  0  0
 26 43  1  0  0  0  0
 26 67  1  0  0  0  0
 26 73  1  0  0  0  0
 27 81  1  0  0  0  0
 28 88  1  0  0  0  0
 29 40  4  0  0  0  0
 29 72  4  0  0  0  0
 29 82  4  0  0  0  0
 30 35  4  0  0  0  0
 30 79  4  0  0  0  0
 31 59  4  0  0  0  0
 31 95  4  0  0  0  0
 32 63  1  0  0  0  0
 33 58  1  0  0  0  0
 34 36  4  0  0  0  0
 34 70  4  0  0  0  0
 35 40  4  0  0  0  0
 35 59  4  0  0  0  0
 36 71  4  0  0  0  0
 38 61  4  0  0  0  0
 38 70  4  0  0  0  0
 38 72  4  0  0  0  0
 41 65  1  0  0  0  0
 42 47  1  0  0  0  0
 44 69  4  0  0  0  0
 45 64  2  0  0  0  0
 45 76  1  0  0  0  0
 47 84  4  0  0  0  0
 48 55  2  0  0  0  0
 48 56  1  0  0  0  0
 49 90  1  0  0  0  0
 50 58  1  0  0  0  0
 51 84  4  0  0  0  0
 51 91  1  0  0  0  0
 53 58  1  0  0  0  0
 54 65  4  0  0  0  0
 54 84  1  0  0  0  0
 55 74  1  0  0  0  0
 57 79  1  0  0  0  0
 59 77  4  0  0  0  0
 60 69  1  0  0  0  0
 61 71  4  0  0  0  0
 62 68  1  0  0  0  0
 62 83  1  0  0  0  0
 62 95  1  0  0  0  0
 63 67  1  0  0  0  0
 64 89  4  0  0  0  0
 64 92  4  0  0  0  0
 66 76  2  0  0  0  0
 67 83  2  0  0  0  0
 72 81  4  0  0  0  0
 75 77  1  0  0  0  0
 78 89  1  0  0  0  0
 79 82  4  0  0  0  0
 80 87  1  0  0  0  0
 83 86  1  0  0  0  0
 86 89  4  0  0  0  0
 92 93  4  0  0  0  0
M  END
$$$$
