 energy: -102.581121503034 gnorm: 0.001876471988 xtb: 6.7.1 (edcfbbe)
          08202606263D

 62 68  0     0  0            999 V2000
    1.8696    6.6953    5.3782 H   0  0  0  0  0  0  0  0  0  0  0  0
    0.6136   -0.4154   -0.0705 C   0  0  0  0  0  0  0  0  0  0  0  0
   -1.0535    4.6120    0.2060 H   0  0  0  0  0  0  0  0  0  0  0  0
   -1.3015   -3.3697   -2.5339 N   0  0  0  0  0  0  0  0  0  0  0  0
   -3.7287   -3.5133   -3.5228 H   0  0  0  0  0  0  0  0  0  0  0  0
    1.6258    2.4443    3.3463 C   0  0  0  0  0  0  0  0  0  0  0  0
   -3.5927   -5.4557   -4.4211 C   0  0  0  0  0  0  0  0  0  0  0  0
    1.3683   -3.0414   -0.1988 C   0  0  0  0  0  0  0  0  0  0  0  0
   -3.0330    0.5982   -4.1603 H   0  0  0  0  0  0  0  0  0  0  0  0
    2.5423   -2.7010    1.5576 H   0  0  0  0  0  0  0  0  0  0  0  0
    0.0277    3.6400    1.7681 C   0  0  0  0  0  0  0  0  0  0  0  0
    0.3459    0.8914    0.2345 N   0  0  0  0  0  0  0  0  0  0  0  0
    1.4397    4.7684    4.6592 C   0  0  0  0  0  0  0  0  0  0  0  0
   -1.8738    2.9187    2.5214 H   0  0  0  0  0  0  0  0  0  0  0  0
   -1.9331   -0.6150   -2.6652 C   0  0  0  0  0  0  0  0  0  0  0  0
    3.0464    1.5227    4.8941 O   0  0  0  0  0  0  0  0  0  0  0  0
   -1.1507    3.6917    2.7730 C   0  0  0  0  0  0  0  0  0  0  0  0
    3.1591    3.1228    6.1925 H   0  0  0  0  0  0  0  0  0  0  0  0
    2.2351    5.7080    5.1555 C   0  0  0  0  0  0  0  0  0  0  0  0
   -1.3850    2.8948    0.2591 H   0  0  0  0  0  0  0  0  0  0  0  0
   -0.8262    3.5092    3.7922 H   0  0  0  0  0  0  0  0  0  0  0  0
   -0.6621   -7.7365   -4.5203 C   0  0  0  0  0  0  0  0  0  0  0  0
   -0.0535   -8.6817   -4.7423 N   0  0  0  0  0  0  0  0  0  0  0  0
    0.1717    3.5158   -0.3954 H   0  0  0  0  0  0  0  0  0  0  0  0
   -2.7821   -6.5736   -4.6777 C   0  0  0  0  0  0  0  0  0  0  0  0
    1.5448    4.8376    2.5212 H   0  0  0  0  0  0  0  0  0  0  0  0
   -0.5966    3.6360    0.3628 C   0  0  0  0  0  0  0  0  0  0  0  0
    1.6917    0.1015    1.8616 C   0  0  0  0  0  0  0  0  0  0  0  0
    0.8239    0.9603   -2.5924 H   0  0  0  0  0  0  0  0  0  0  0  0
    0.8810    2.4326    2.1454 C   0  0  0  0  0  0  0  0  0  0  0  0
   -0.7608    2.0529   -4.1953 H   0  0  0  0  0  0  0  0  0  0  0  0
   -1.0045    1.1832   -3.6176 C   0  0  0  0  0  0  0  0  0  0  0  0
    2.4337    0.1242    3.0254 C   0  0  0  0  0  0  0  0  0  0  0  0
   -0.2907    1.4579   -0.2930 H   0  0  0  0  0  0  0  0  0  0  0  0
    2.3866    1.3066    3.7301 C   0  0  0  0  0  0  0  0  0  0  0  0
    1.6447   -4.0805   -0.2888 H   0  0  0  0  0  0  0  0  0  0  0  0
    0.4750   -2.5227   -1.1535 C   0  0  0  0  0  0  0  0  0  0  0  0
    0.4025    5.0028    4.4722 H   0  0  0  0  0  0  0  0  0  0  0  0
    3.0082   -0.7187    3.3697 H   0  0  0  0  0  0  0  0  0  0  0  0
    0.3589   -5.4456   -3.1962 N   0  0  0  0  0  0  0  0  0  0  0  0
    1.4642   -0.9498    0.9160 C   0  0  0  0  0  0  0  0  0  0  0  0
    1.8691   -2.2778    0.8292 C   0  0  0  0  0  0  0  0  0  0  0  0
   -0.6641   -0.4701   -2.1560 C   0  0  0  0  0  0  0  0  0  0  0  0
    1.8898    3.4019    4.4078 C   0  0  0  0  0  0  0  0  0  0  0  0
    0.1052   -1.1708   -1.1315 C   0  0  0  0  0  0  0  0  0  0  0  0
    0.7863   -4.4742   -2.4972 N   0  0  0  0  0  0  0  0  0  0  0  0
   -2.6319   -1.3740   -2.3859 H   0  0  0  0  0  0  0  0  0  0  0  0
   -0.9378   -5.4878   -3.5633 C   0  0  0  0  0  0  0  0  0  0  0  0
    0.3381    5.6669    1.7777 H   0  0  0  0  0  0  0  0  0  0  0  0
    2.7401    2.7750    5.2678 C   0  0  0  0  0  0  0  0  0  0  0  0
    3.2793    5.5281    5.3450 H   0  0  0  0  0  0  0  0  0  0  0  0
   -1.7783   -4.3757   -3.2800 C   0  0  0  0  0  0  0  0  0  0  0  0
   -1.4680   -6.6034   -4.2638 C   0  0  0  0  0  0  0  0  0  0  0  0
   -0.1241    0.6516   -2.7315 N   0  0  0  0  0  0  0  0  0  0  0  0
    0.8898    4.8171    1.7525 N   0  0  0  0  0  0  0  0  0  0  0  0
   -3.1121   -4.3700   -3.7428 C   0  0  0  0  0  0  0  0  0  0  0  0
   -2.1432    0.4269   -3.5876 C   0  0  0  0  0  0  0  0  0  0  0  0
   -4.6173   -5.4700   -4.7619 H   0  0  0  0  0  0  0  0  0  0  0  0
   -1.6506    4.6580    2.7210 H   0  0  0  0  0  0  0  0  0  0  0  0
   -0.0559   -3.4783   -2.1162 C   0  0  0  0  0  0  0  0  0  0  0  0
    0.9467    1.2416    1.4242 C   0  0  0  0  0  0  0  0  0  0  0  0
   -3.1928   -7.4225   -5.2042 H   0  0  0  0  0  0  0  0  0  0  0  0
  1 19  1  0  0  0  0
  2 12  4  0  0  0  0
  2 41  4  0  0  0  0
  2 45  4  0  0  0  0
  3 27  1  0  0  0  0
  4 52  4  0  0  0  0
  4 60  4  0  0  0  0
  5 56  1  0  0  0  0
  6 30  4  0  0  0  0
  6 35  4  0  0  0  0
  6 44  4  0  0  0  0
  7 25  4  0  0  0  0
  7 56  4  0  0  0  0
  7 58  1  0  0  0  0
  8 36  1  0  0  0  0
  8 37  4  0  0  0  0
  8 42  4  0  0  0  0
  9 57  1  0  0  0  0
 10 42  1  0  0  0  0
 11 17  1  0  0  0  0
 11 27  1  0  0  0  0
 11 30  1  0  0  0  0
 11 55  1  0  0  0  0
 12 34  1  0  0  0  0
 12 61  4  0  0  0  0
 13 19  1  0  0  0  0
 13 38  1  0  0  0  0
 13 44  1  0  0  0  0
 14 17  1  0  0  0  0
 15 43  4  0  0  0  0
 15 47  1  0  0  0  0
 15 57  4  0  0  0  0
 16 35  4  0  0  0  0
 16 50  4  0  0  0  0
 17 21  1  0  0  0  0
 17 59  1  0  0  0  0
 18 50  1  0  0  0  0
 19 51  1  0  0  0  0
 20 27  1  0  0  0  0
 22 23  3  0  0  0  0
 22 53  1  0  0  0  0
 24 27  1  0  0  0  0
 25 53  4  0  0  0  0
 25 62  1  0  0  0  0
 26 55  1  0  0  0  0
 28 33  4  0  0  0  0
 28 41  4  0  0  0  0
 28 61  4  0  0  0  0
 29 54  1  0  0  0  0
 30 61  4  0  0  0  0
 31 32  1  0  0  0  0
 32 54  4  0  0  0  0
 32 57  4  0  0  0  0
 33 35  4  0  0  0  0
 33 39  1  0  0  0  0
 37 45  4  0  0  0  0
 37 60  1  0  0  0  0
 40 46  4  0  0  0  0
 40 48  4  0  0  0  0
 41 42  4  0  0  0  0
 43 45  1  0  0  0  0
 43 54  4  0  0  0  0
 44 50  4  0  0  0  0
 46 60  4  0  0  0  0
 48 52  4  0  0  0  0
 48 53  4  0  0  0  0
 49 55  1  0  0  0  0
 52 56  4  0  0  0  0
M  END
$$$$
