00030
     RDKit          3D

 62 68  0  0  0  0  0  0  0  0999 V2000
    2.7484    6.6071    6.3092 H   0  0  0  0  0  0  0  0  0  0  0  0
    0.5881   -0.2313   -0.6655 C   0  0  0  0  0  0  0  0  0  0  0  0
   -1.9620    4.9913    1.4036 H   0  0  0  0  0  0  0  0  0  0  0  0
   -1.2632   -3.6314   -2.6709 N   0  0  0  0  0  0  0  0  0  0  0  0
   -3.8291   -3.8610   -3.2845 H   0  0  0  0  0  0  0  0  0  0  0  0
    1.5329    2.5099    3.3450 C   0  0  0  0  0  0  0  0  0  0  0  0
   -3.9891   -5.9673   -3.8365 C   0  0  0  0  0  0  0  0  0  0  0  0
    1.9858   -2.6383   -1.0879 C   0  0  0  0  0  0  0  0  0  0  0  0
   -1.5361   -0.1194   -6.2768 H   0  0  0  0  0  0  0  0  0  0  0  0
    3.3867   -1.8853    0.4020 H   0  0  0  0  0  0  0  0  0  0  0  0
   -0.4998    4.0308    2.7312 C   0  0  0  0  0  0  0  0  0  0  0  0
    0.0955    1.0459   -0.1227 N   0  0  0  0  0  0  0  0  0  0  0  0
    1.7427    4.8270    5.4979 C   0  0  0  0  0  0  0  0  0  0  0  0
   -2.2790    2.9925    3.5804 H   0  0  0  0  0  0  0  0  0  0  0  0
   -0.8687   -1.0800   -4.3581 C   0  0  0  0  0  0  0  0  0  0  0  0
    3.2249    1.5235    4.5361 O   0  0  0  0  0  0  0  0  0  0  0  0
   -1.6474    3.7841    3.8338 C   0  0  0  0  0  0  0  0  0  0  0  0
    3.5154    2.9426    6.2040 H   0  0  0  0  0  0  0  0  0  0  0  0
    2.7873    5.7735    5.6932 C   0  0  0  0  0  0  0  0  0  0  0  0
   -1.7353    3.1989    1.2007 H   0  0  0  0  0  0  0  0  0  0  0  0
   -1.1968    3.6496    4.8354 H   0  0  0  0  0  0  0  0  0  0  0  0
   -1.4182   -8.6838   -3.9940 C   0  0  0  0  0  0  0  0  0  0  0  0
   -1.0301   -9.8015   -4.1139 N   0  0  0  0  0  0  0  0  0  0  0  0
   -0.5220    4.4289    0.6235 H   0  0  0  0  0  0  0  0  0  0  0  0
   -3.3549   -7.1960   -4.0341 C   0  0  0  0  0  0  0  0  0  0  0  0
    0.7119    5.7279    3.5487 H   0  0  0  0  0  0  0  0  0  0  0  0
   -1.1920    4.1699    1.4144 C   0  0  0  0  0  0  0  0  0  0  0  0
    1.7697    0.4293    1.3030 C   0  0  0  0  0  0  0  0  0  0  0  0
    0.6179    1.4553   -2.9610 H   0  0  0  0  0  0  0  0  0  0  0  0
    0.6063    2.5393    2.2486 C   0  0  0  0  0  0  0  0  0  0  0  0
   -0.3746    2.0911   -5.1788 H   0  0  0  0  0  0  0  0  0  0  0  0
   -0.4823    1.1340   -4.7433 C   0  0  0  0  0  0  0  0  0  0  0  0
    2.6083    0.5120    2.4407 C   0  0  0  0  0  0  0  0  0  0  0  0
   -0.6141    1.6382   -0.5883 H   0  0  0  0  0  0  0  0  0  0  0  0
    2.4260    1.4861    3.3969 C   0  0  0  0  0  0  0  0  0  0  0  0
    2.5337   -3.5647   -1.2248 H   0  0  0  0  0  0  0  0  0  0  0  0
    0.7734   -2.4372   -1.8086 C   0  0  0  0  0  0  0  0  0  0  0  0
    0.8015    5.0059    5.9028 H   0  0  0  0  0  0  0  0  0  0  0  0
    3.4305   -0.1702    2.5851 H   0  0  0  0  0  0  0  0  0  0  0  0
    0.0797   -6.0077   -2.9782 N   0  0  0  0  0  0  0  0  0  0  0  0
    1.7180   -0.5526    0.1985 C   0  0  0  0  0  0  0  0  0  0  0  0
    2.4458   -1.6800   -0.1461 C   0  0  0  0  0  0  0  0  0  0  0  0
   -0.1856   -0.5776   -3.1643 C   0  0  0  0  0  0  0  0  0  0  0  0
    1.9441    3.4264    4.6536 C   0  0  0  0  0  0  0  0  0  0  0  0
    0.3303   -1.0678   -1.8451 C   0  0  0  0  0  0  0  0  0  0  0  0
    0.6928   -4.9443   -2.5614 N   0  0  0  0  0  0  0  0  0  0  0  0
   -1.1907   -2.0438   -4.5916 H   0  0  0  0  0  0  0  0  0  0  0  0
   -1.2276   -6.0441   -3.2645 C   0  0  0  0  0  0  0  0  0  0  0  0
   -0.6033    6.2238    2.9315 H   0  0  0  0  0  0  0  0  0  0  0  0
    2.9283    2.6822    5.2873 C   0  0  0  0  0  0  0  0  0  0  0  0
    3.6563    5.7048    5.0604 H   0  0  0  0  0  0  0  0  0  0  0  0
   -1.9081   -4.8048   -3.0660 C   0  0  0  0  0  0  0  0  0  0  0  0
   -1.9427   -7.2528   -3.7642 C   0  0  0  0  0  0  0  0  0  0  0  0
    0.0557    0.7912   -3.4472 N   0  0  0  0  0  0  0  0  0  0  0  0
    0.0084    5.3377    3.1376 N   0  0  0  0  0  0  0  0  0  0  0  0
   -3.3310   -4.8063   -3.3778 C   0  0  0  0  0  0  0  0  0  0  0  0
   -1.0467   -0.0077   -5.3136 C   0  0  0  0  0  0  0  0  0  0  0  0
   -5.1125   -5.9109   -4.0881 H   0  0  0  0  0  0  0  0  0  0  0  0
   -2.2885    4.7625    3.9414 H   0  0  0  0  0  0  0  0  0  0  0  0
    0.0719   -3.7236   -2.4074 C   0  0  0  0  0  0  0  0  0  0  0  0
    0.7652    1.3899    1.1445 C   0  0  0  0  0  0  0  0  0  0  0  0
   -3.9522   -8.1214   -4.4255 H   0  0  0  0  0  0  0  0  0  0  0  0
  1 19  1  0
  2 12  4  0
  2 41  4  0
  2 45  4  0
  3 27  1  0
  4 52  4  0
  4 60  4  0
  5 56  1  0
  6 30  4  0
  6 35  4  0
  6 44  4  0
  7 25  4  0
  7 56  4  0
  7 58  1  0
  8 36  1  0
  8 37  4  0
  8 42  4  0
  9 57  1  0
 10 42  1  0
 11 17  1  0
 11 27  1  0
 11 30  1  0
 11 55  1  0
 12 34  1  0
 12 61  4  0
 13 19  1  0
 13 38  1  0
 13 44  1  0
 14 17  1  0
 15 43  4  0
 15 47  1  0
 15 57  4  0
 16 35  4  0
 16 50  4  0
 17 21  1  0
 17 59  1  0
 18 50  1  0
 19 51  1  0
 20 27  1  0
 22 23  3  0
 22 53  1  0
 24 27  1  0
 25 53  4  0
 25 62  1  0
 26 55  1  0
 28 33  4  0
 28 41  4  0
 28 61  4  0
 29 54  1  0
 30 61  4  0
 31 32  1  0
 32 54  4  0
 32 57  4  0
 33 35  4  0
 33 39  1  0
 37 45  4  0
 37 60  1  0
 40 46  4  0
 40 48  4  0
 41 42  4  0
 43 45  1  0
 43 54  4  0
 44 50  4  0
 46 60  4  0
 48 52  4  0
 48 53  4  0
 49 55  1  0
 52 56  4  0
M  END
>  <generation_index>  (1) 
30

>  <target_raw_property>  (1) 
0.5

>  <num_atoms>  (1) 
62

>  <sanitize_ok>  (1) 
True

>  <single_component>  (1) 
True

>  <canonical_smiles>  (1) 
[H]c1oc2c([H])c3c4c([H])c([H])c(-c5nnc6c(C#N)c([H])c([H])c([H])c6n5)c(-c5c([H])c([H])c([H])n5[H])c4n([H])c3c(C(N([H])[H])(C([H])([H])[H])C([H])([H])[H])c2c1C([H])C([H])[H]

>  <is_unique_generated>  (1) 
True

>  <dataset_membership_checked>  (1) 
True

>  <in_train_dataset>  (1) 
False

>  <in_val_dataset>  (1) 
False

>  <in_test_dataset>  (1) 
False

>  <in_any_dataset>  (1) 
False

>  <is_novel>  (1) 
True

$$$$
