00041
     RDKit          3D

 82 91  0  0  0  0  0  0  0  0999 V2000
   -2.7374    2.3031   -9.7911 C   0  0  0  0  0  0  0  0  0  0  0  0
    2.1607   -0.0717    8.1366 C   0  0  0  0  0  0  0  0  0  0  0  0
   -3.3866   -0.6439   -5.5308 C   0  0  0  0  0  0  0  0  0  0  0  0
   -2.8791    5.2630  -10.7756 C   0  0  0  0  0  0  0  0  0  0  0  0
   -1.9332    0.9833  -11.8757 C   0  0  0  0  0  0  0  0  0  0  0  0
   -3.0271    6.4366  -10.9535 H   0  0  0  0  0  0  0  0  0  0  0  0
   -3.3797   -0.3879    3.2102 H   0  0  0  0  0  0  0  0  0  0  0  0
   -2.4997   -1.5721    5.4363 H   0  0  0  0  0  0  0  0  0  0  0  0
   -2.9291    5.5715   -8.7367 H   0  0  0  0  0  0  0  0  0  0  0  0
   -3.0472    1.1461   -9.0027 N   0  0  0  0  0  0  0  0  0  0  0  0
    4.8239   -1.4469   10.7503 C   0  0  0  0  0  0  0  0  0  0  0  0
    2.8760   -2.4022    8.2153 C   0  0  0  0  0  0  0  0  0  0  0  0
   -2.3244   -0.6357    3.3628 C   0  0  0  0  0  0  0  0  0  0  0  0
   -2.8753    4.7778   -9.4759 C   0  0  0  0  0  0  0  0  0  0  0  0
    0.7663   -3.5545    5.2494 C   0  0  0  0  0  0  0  0  0  0  0  0
    2.9887   -1.0522    8.7909 C   0  0  0  0  0  0  0  0  0  0  0  0
   -1.2522   -0.2617  -13.6299 H   0  0  0  0  0  0  0  0  0  0  0  0
    2.9601   -5.5640    7.1835 H   0  0  0  0  0  0  0  0  0  0  0  0
    0.5499   -6.7354    3.7984 H   0  0  0  0  0  0  0  0  0  0  0  0
   -1.3420    1.5706  -15.2268 H   0  0  0  0  0  0  0  0  0  0  0  0
   -3.8740   -1.6644   -5.3873 H   0  0  0  0  0  0  0  0  0  0  0  0
   -2.3482    3.2635  -12.2211 C   0  0  0  0  0  0  0  0  0  0  0  0
   -1.4881    1.2705   -3.0117 N   0  0  0  0  0  0  0  0  0  0  0  0
    1.8180   -6.2388    5.4577 C   0  0  0  0  0  0  0  0  0  0  0  0
   -2.3630    2.1782  -11.2720 C   0  0  0  0  0  0  0  0  0  0  0  0
    3.5117   -3.2071    8.7231 H   0  0  0  0  0  0  0  0  0  0  0  0
    2.2425    0.9590    8.5254 H   0  0  0  0  0  0  0  0  0  0  0  0
    0.8538   -5.8977    4.4815 C   0  0  0  0  0  0  0  0  0  0  0  0
    1.2049   -1.6152    6.4352 C   0  0  0  0  0  0  0  0  0  0  0  0
    5.6585   -0.9481   11.8579 C   0  0  0  0  0  0  0  0  0  0  0  0
   -1.2196   -0.4740    2.4798 C   0  0  0  0  0  0  0  0  0  0  0  0
   -0.1032    0.4630    0.4644 C   0  0  0  0  0  0  0  0  0  0  0  0
    2.2259    0.7132    1.3921 N   0  0  0  0  0  0  0  0  0  0  0  0
   -1.6282    1.7657  -14.1885 C   0  0  0  0  0  0  0  0  0  0  0  0
   -2.7313    3.4329   -8.9163 C   0  0  0  0  0  0  0  0  0  0  0  0
   -0.8190    1.9905   -3.3494 H   0  0  0  0  0  0  0  0  0  0  0  0
   -3.4887   -0.2454   -6.9279 C   0  0  0  0  0  0  0  0  0  0  0  0
    1.0967    0.5327    1.1213 C   0  0  0  0  0  0  0  0  0  0  0  0
    2.0040   -2.6492    7.0691 C   0  0  0  0  0  0  0  0  0  0  0  0
   -2.4321    0.0443    0.3875 N   0  0  0  0  0  0  0  0  0  0  0  0
   -3.0767    0.9816   -7.6363 C   0  0  0  0  0  0  0  0  0  0  0  0
   -2.5233    0.3912   -0.9146 C   0  0  0  0  0  0  0  0  0  0  0  0
   -2.1792    1.0242   -4.2345 C   0  0  0  0  0  0  0  0  0  0  0  0
    1.7276   -3.8899    6.2907 C   0  0  0  0  0  0  0  0  0  0  0  0
    4.9278   -2.5077   10.5832 H   0  0  0  0  0  0  0  0  0  0  0  0
   -0.1741    0.8484   -0.9239 C   0  0  0  0  0  0  0  0  0  0  0  0
    3.8917   -0.5937   10.0048 C   0  0  0  0  0  0  0  0  0  0  0  0
    5.6893    0.4048   12.2756 C   0  0  0  0  0  0  0  0  0  0  0  0
   -2.0366    3.0042  -13.6989 C   0  0  0  0  0  0  0  0  0  0  0  0
    0.7059    0.4458    6.6077 H   0  0  0  0  0  0  0  0  0  0  0  0
    1.2909   -0.3616    7.0432 C   0  0  0  0  0  0  0  0  0  0  0  0
    3.3298    1.4974   10.2004 H   0  0  0  0  0  0  0  0  0  0  0  0
    6.5975    0.9739   13.3989 C   0  0  0  0  0  0  0  0  0  0  0  0
    6.7623    2.0090   13.5696 H   0  0  0  0  0  0  0  0  0  0  0  0
    2.2442   -5.2225    6.3713 C   0  0  0  0  0  0  0  0  0  0  0  0
   -1.5883    0.7374  -13.2201 C   0  0  0  0  0  0  0  0  0  0  0  0
   -2.6709    5.3538  -12.9201 H   0  0  0  0  0  0  0  0  0  0  0  0
    7.2791    0.3238   14.1766 O   0  0  0  0  0  0  0  0  0  0  0  0
    2.2303   -7.2339    5.5435 H   0  0  0  0  0  0  0  0  0  0  0  0
   -1.7256    2.9625   -5.1722 H   0  0  0  0  0  0  0  0  0  0  0  0
   -2.5954    2.0152   -6.7938 C   0  0  0  0  0  0  0  0  0  0  0  0
    4.8158    1.2334   11.5835 N   0  0  0  0  0  0  0  0  0  0  0  0
    0.6878    1.2145   -1.4527 H   0  0  0  0  0  0  0  0  0  0  0  0
    6.3387   -1.6182   12.4572 H   0  0  0  0  0  0  0  0  0  0  0  0
   -0.0947   -0.9627    3.2438 N   0  0  0  0  0  0  0  0  0  0  0  0
   -1.8420    0.1337  -11.1971 H   0  0  0  0  0  0  0  0  0  0  0  0
    0.8572   -1.1335    2.9425 H   0  0  0  0  0  0  0  0  0  0  0  0
   -3.9382   -0.9732   -7.6318 H   0  0  0  0  0  0  0  0  0  0  0  0
   -2.6434    4.6249  -12.0062 C   0  0  0  0  0  0  0  0  0  0  0  0
    3.9697    0.7277   10.5784 C   0  0  0  0  0  0  0  0  0  0  0  0
   -1.8977   -1.2816    4.6111 C   0  0  0  0  0  0  0  0  0  0  0  0
   -2.5663    3.2763   -7.5916 N   0  0  0  0  0  0  0  0  0  0  0  0
   -3.5033    0.3678   -1.3881 H   0  0  0  0  0  0  0  0  0  0  0  0
   -2.8336   -0.1494   -4.3966 N   0  0  0  0  0  0  0  0  0  0  0  0
   -0.4422   -4.3857    3.6520 H   0  0  0  0  0  0  0  0  0  0  0  0
   -2.1975    1.9836   -5.4042 C   0  0  0  0  0  0  0  0  0  0  0  0
   -1.2551    0.0148    1.0891 C   0  0  0  0  0  0  0  0  0  0  0  0
   -0.4616   -1.4721    4.4565 C   0  0  0  0  0  0  0  0  0  0  0  0
    0.4205   -2.1700    5.3737 N   0  0  0  0  0  0  0  0  0  0  0  0
   -1.3811    0.8031   -1.6099 C   0  0  0  0  0  0  0  0  0  0  0  0
    0.3040   -4.6001    4.4148 C   0  0  0  0  0  0  0  0  0  0  0  0
   -2.0764    3.8055  -14.5312 H   0  0  0  0  0  0  0  0  0  0  0  0
  1 10  4  0
  1 25  2  0
  1 35  4  0
  2 16  4  0
  2 27  1  0
  2 51  4  0
  3 21  1  0
  3 37  2  0
  3 74  1  0
  4  6  1  0
  4 14  2  0
  4 69  1  0
  5 25  4  0
  5 56  4  0
  5 66  1  0
  7 13  1  0
  8 71  1  0
  9 14  1  0
 10 41  4  0
 11 30  4  0
 11 45  1  0
 11 47  4  0
 12 16  4  0
 12 26  1  0
 12 39  4  0
 13 31  4  0
 13 71  4  0
 14 35  1  0
 15 44  4  0
 15 79  4  0
 15 81  4  0
 16 47  1  0
 17 56  1  0
 18 55  1  0
 19 28  1  0
 20 34  1  0
 22 25  4  0
 22 49  4  0
 22 69  2  0
 23 36  1  0
 23 43  1  0
 23 80  1  0
 24 28  4  0
 24 55  4  0
 24 59  1  0
 28 81  4  0
 29 39  4  0
 29 51  4  0
 29 79  4  0
 30 48  4  0
 30 64  1  0
 31 65  4  0
 31 77  1  0
 32 38  1  0
 32 46  4  0
 32 77  4  0
 33 38  3  0
 34 49  4  0
 34 56  4  0
 35 72  4  0
 37 41  1  0
 37 68  1  0
 39 44  4  0
 40 42  4  0
 40 77  4  0
 41 61  4  0
 42 73  1  0
 42 80  4  0
 43 74  2  0
 43 76  1  0
 44 55  4  0
 46 63  1  0
 46 80  4  0
 47 70  4  0
 48 53  1  0
 48 62  4  0
 49 82  1  0
 50 51  1  0
 52 70  1  0
 53 54  1  0
 53 58  2  0
 57 69  1  0
 60 76  1  0
 61 72  4  0
 61 76  2  0
 62 70  4  0
 65 67  1  0
 65 78  4  0
 71 78  4  0
 75 81  1  0
 78 79  1  0
M  END
>  <generation_index>  (1) 
41

>  <target_raw_property>  (1) 
0.5

>  <num_atoms>  (1) 
82

>  <sanitize_ok>  (1) 
True

>  <single_component>  (1) 
True

>  <canonical_smiles>  (1) 
[H]C(=O)c1nc([H])c(-c2c([H])c([H])c3c(c2[H])c2c([H])c([H])c([H])c([H])c2n3-c2c([H])c([H])c(-c3nc([H])c(N([H])C4=NC([H])=C([H])c5nc6c(nc5=C4[H])C([H])=C([H])C([H])=c4c([H])c([H])c([H])c([H])c4=6)c([H])c3C#N)n2[H])c([H])c1[H]

>  <is_unique_generated>  (1) 
True

>  <dataset_membership_checked>  (1) 
True

>  <in_train_dataset>  (1) 
False

>  <in_val_dataset>  (1) 
False

>  <in_test_dataset>  (1) 
False

>  <in_any_dataset>  (1) 
False

>  <is_novel>  (1) 
True

$$$$
