 energy: -140.456422791456 gnorm: 0.002519375124 xtb: 6.7.1 (edcfbbe)
          08252607103D

 82 91  0     0  0            999 V2000
   -2.5036    2.3151   -8.8867 C   0  0  0  0  0  0  0  0  0  0  0  0
    2.1568    0.0109    6.8189 C   0  0  0  0  0  0  0  0  0  0  0  0
   -3.7652    0.7253   -4.5548 C   0  0  0  0  0  0  0  0  0  0  0  0
   -2.6041    5.0488  -10.3474 C   0  0  0  0  0  0  0  0  0  0  0  0
   -2.0011    0.5346  -10.4418 C   0  0  0  0  0  0  0  0  0  0  0  0
   -2.7741    6.0827  -10.6232 H   0  0  0  0  0  0  0  0  0  0  0  0
   -2.7333   -2.0527    1.7331 H   0  0  0  0  0  0  0  0  0  0  0  0
   -1.9705   -3.4066    3.9288 H   0  0  0  0  0  0  0  0  0  0  0  0
   -2.1597    5.7123   -8.3790 H   0  0  0  0  0  0  0  0  0  0  0  0
   -2.9395    1.4053   -8.0495 N   0  0  0  0  0  0  0  0  0  0  0  0
    4.6075   -0.7906    9.4685 C   0  0  0  0  0  0  0  0  0  0  0  0
    2.6583   -2.1870    7.6858 C   0  0  0  0  0  0  0  0  0  0  0  0
   -1.7995   -1.9750    2.2501 C   0  0  0  0  0  0  0  0  0  0  0  0
   -2.3130    4.8382   -8.9977 C   0  0  0  0  0  0  0  0  0  0  0  0
    0.8684   -4.0108    5.0806 C   0  0  0  0  0  0  0  0  0  0  0  0
    2.7554   -0.8034    7.7919 C   0  0  0  0  0  0  0  0  0  0  0  0
   -1.5956   -1.0529  -11.8069 H   0  0  0  0  0  0  0  0  0  0  0  0
    2.5407   -5.3875    7.7114 H   0  0  0  0  0  0  0  0  0  0  0  0
    0.4107   -7.2833    4.5239 H   0  0  0  0  0  0  0  0  0  0  0  0
   -1.7796    0.4104  -13.8002 H   0  0  0  0  0  0  0  0  0  0  0  0
   -4.5927    0.1962   -4.0879 H   0  0  0  0  0  0  0  0  0  0  0  0
   -2.3529    2.7497  -11.3810 C   0  0  0  0  0  0  0  0  0  0  0  0
   -0.8852    1.8760   -2.8183 N   0  0  0  0  0  0  0  0  0  0  0  0
    1.4911   -6.4605    6.1766 C   0  0  0  0  0  0  0  0  0  0  0  0
   -2.2656    1.9011  -10.2498 C   0  0  0  0  0  0  0  0  0  0  0  0
    3.0871   -2.8292    8.4399 H   0  0  0  0  0  0  0  0  0  0  0  0
    2.2588    1.0824    6.8990 H   0  0  0  0  0  0  0  0  0  0  0  0
    0.7451   -6.3753    5.0031 C   0  0  0  0  0  0  0  0  0  0  0  0
    1.3612   -1.8976    5.6533 C   0  0  0  0  0  0  0  0  0  0  0  0
    5.2010   -0.2201   10.5765 C   0  0  0  0  0  0  0  0  0  0  0  0
   -0.7642   -1.1232    1.8911 C   0  0  0  0  0  0  0  0  0  0  0  0
    0.2866    0.6665    0.4342 C   0  0  0  0  0  0  0  0  0  0  0  0
    2.2615    1.0664    2.0056 N   0  0  0  0  0  0  0  0  0  0  0  0
   -1.9128    0.8230  -12.8110 C   0  0  0  0  0  0  0  0  0  0  0  0
   -2.2249    3.6286   -8.3351 C   0  0  0  0  0  0  0  0  0  0  0  0
   -0.0852    2.4783   -2.9659 H   0  0  0  0  0  0  0  0  0  0  0  0
   -3.8008    0.8230   -5.9398 C   0  0  0  0  0  0  0  0  0  0  0  0
    1.3811    0.8862    1.2880 C   0  0  0  0  0  0  0  0  0  0  0  0
    1.9581   -2.7345    6.6255 C   0  0  0  0  0  0  0  0  0  0  0  0
   -1.7991   -0.3677   -0.0632 N   0  0  0  0  0  0  0  0  0  0  0  0
   -2.9359    1.5755   -6.7302 C   0  0  0  0  0  0  0  0  0  0  0  0
   -1.8744    0.3114   -1.1776 C   0  0  0  0  0  0  0  0  0  0  0  0
   -1.7557    1.8143   -3.8833 C   0  0  0  0  0  0  0  0  0  0  0  0
    1.6450   -4.0873    6.2560 C   0  0  0  0  0  0  0  0  0  0  0  0
    5.0388   -1.6662    9.0048 H   0  0  0  0  0  0  0  0  0  0  0  0
    0.2111    1.3799   -0.7605 C   0  0  0  0  0  0  0  0  0  0  0  0
    3.4529   -0.2134    8.9355 C   0  0  0  0  0  0  0  0  0  0  0  0
    4.6245    0.9234   11.1320 C   0  0  0  0  0  0  0  0  0  0  0  0
   -2.1870    2.1560  -12.6519 C   0  0  0  0  0  0  0  0  0  0  0  0
    1.0131    0.1366    5.0166 H   0  0  0  0  0  0  0  0  0  0  0  0
    1.4656   -0.5165    5.7470 C   0  0  0  0  0  0  0  0  0  0  0  0
    2.0685    1.4232    9.2163 H   0  0  0  0  0  0  0  0  0  0  0  0
    5.1996    1.5706   12.3212 C   0  0  0  0  0  0  0  0  0  0  0  0
    4.6202    2.4502   12.6530 H   0  0  0  0  0  0  0  0  0  0  0  0
    1.9525   -5.3233    6.8088 C   0  0  0  0  0  0  0  0  0  0  0  0
   -1.8116   -0.0017  -11.6900 C   0  0  0  0  0  0  0  0  0  0  0  0
   -2.8385    4.5573  -12.3553 H   0  0  0  0  0  0  0  0  0  0  0  0
    6.1924    1.2026   12.8972 O   0  0  0  0  0  0  0  0  0  0  0  0
    1.7145   -7.4323    6.5901 H   0  0  0  0  0  0  0  0  0  0  0  0
   -0.6698    3.3768   -4.8360 H   0  0  0  0  0  0  0  0  0  0  0  0
   -2.0530    2.6311   -6.2322 C   0  0  0  0  0  0  0  0  0  0  0  0
    3.5262    1.4867   10.6259 N   0  0  0  0  0  0  0  0  0  0  0  0
    1.0015    2.0747   -1.0132 H   0  0  0  0  0  0  0  0  0  0  0  0
    6.0942   -0.6289   11.0232 H   0  0  0  0  0  0  0  0  0  0  0  0
    0.2511   -1.3087    2.7961 N   0  0  0  0  0  0  0  0  0  0  0  0
   -1.9479   -0.0912   -9.5638 H   0  0  0  0  0  0  0  0  0  0  0  0
    1.1406   -0.8344    2.7877 H   0  0  0  0  0  0  0  0  0  0  0  0
   -4.5701    0.2736   -6.4649 H   0  0  0  0  0  0  0  0  0  0  0  0
   -2.6344    4.1460  -11.3740 C   0  0  0  0  0  0  0  0  0  0  0  0
    2.9687    0.9391    9.5720 C   0  0  0  0  0  0  0  0  0  0  0  0
   -1.4007   -2.6800    3.3858 C   0  0  0  0  0  0  0  0  0  0  0  0
   -1.8316    3.6383   -7.0464 N   0  0  0  0  0  0  0  0  0  0  0  0
   -2.7612    0.1608   -1.7721 H   0  0  0  0  0  0  0  0  0  0  0  0
   -2.8540    1.0782   -3.6862 N   0  0  0  0  0  0  0  0  0  0  0  0
   -0.1432   -5.0974    3.5218 H   0  0  0  0  0  0  0  0  0  0  0  0
   -1.4401    2.6273   -4.9683 C   0  0  0  0  0  0  0  0  0  0  0  0
   -0.7451   -0.2520    0.7497 C   0  0  0  0  0  0  0  0  0  0  0  0
   -0.1252   -2.2504    3.7006 C   0  0  0  0  0  0  0  0  0  0  0  0
    0.7041   -2.6808    4.7239 N   0  0  0  0  0  0  0  0  0  0  0  0
   -0.8709    1.1940   -1.6190 C   0  0  0  0  0  0  0  0  0  0  0  0
    0.4248   -5.1559    4.4371 C   0  0  0  0  0  0  0  0  0  0  0  0
   -2.2669    2.7899  -13.5236 H   0  0  0  0  0  0  0  0  0  0  0  0
  1 10  4  0  0  0  0
  1 25  2  0  0  0  0
  1 35  4  0  0  0  0
  2 16  4  0  0  0  0
  2 27  1  0  0  0  0
  2 51  4  0  0  0  0
  3 21  1  0  0  0  0
  3 37  2  0  0  0  0
  3 74  1  0  0  0  0
  4  6  1  0  0  0  0
  4 14  2  0  0  0  0
  4 69  1  0  0  0  0
  5 25  4  0  0  0  0
  5 56  4  0  0  0  0
  5 66  1  0  0  0  0
  7 13  1  0  0  0  0
  8 71  1  0  0  0  0
  9 14  1  0  0  0  0
 10 41  4  0  0  0  0
 11 30  4  0  0  0  0
 11 45  1  0  0  0  0
 11 47  4  0  0  0  0
 12 16  4  0  0  0  0
 12 26  1  0  0  0  0
 12 39  4  0  0  0  0
 13 31  4  0  0  0  0
 13 71  4  0  0  0  0
 14 35  1  0  0  0  0
 15 44  4  0  0  0  0
 15 79  4  0  0  0  0
 15 81  4  0  0  0  0
 16 47  1  0  0  0  0
 17 56  1  0  0  0  0
 18 55  1  0  0  0  0
 19 28  1  0  0  0  0
 20 34  1  0  0  0  0
 22 25  4  0  0  0  0
 22 49  4  0  0  0  0
 22 69  2  0  0  0  0
 23 36  1  0  0  0  0
 23 43  1  0  0  0  0
 23 80  1  0  0  0  0
 24 28  4  0  0  0  0
 24 55  4  0  0  0  0
 24 59  1  0  0  0  0
 28 81  4  0  0  0  0
 29 39  4  0  0  0  0
 29 51  4  0  0  0  0
 29 79  4  0  0  0  0
 30 48  4  0  0  0  0
 30 64  1  0  0  0  0
 31 65  4  0  0  0  0
 31 77  1  0  0  0  0
 32 38  1  0  0  0  0
 32 46  4  0  0  0  0
 32 77  4  0  0  0  0
 33 38  3  0  0  0  0
 34 49  4  0  0  0  0
 34 56  4  0  0  0  0
 35 72  4  0  0  0  0
 37 41  1  0  0  0  0
 37 68  1  0  0  0  0
 39 44  4  0  0  0  0
 40 42  4  0  0  0  0
 40 77  4  0  0  0  0
 41 61  4  0  0  0  0
 42 73  1  0  0  0  0
 42 80  4  0  0  0  0
 43 74  2  0  0  0  0
 43 76  1  0  0  0  0
 44 55  4  0  0  0  0
 46 63  1  0  0  0  0
 46 80  4  0  0  0  0
 47 70  4  0  0  0  0
 48 53  1  0  0  0  0
 48 62  4  0  0  0  0
 49 82  1  0  0  0  0
 50 51  1  0  0  0  0
 52 70  1  0  0  0  0
 53 54  1  0  0  0  0
 53 58  2  0  0  0  0
 57 69  1  0  0  0  0
 60 76  1  0  0  0  0
 61 72  4  0  0  0  0
 61 76  2  0  0  0  0
 62 70  4  0  0  0  0
 65 67  1  0  0  0  0
 65 78  4  0  0  0  0
 71 78  4  0  0  0  0
 75 81  1  0  0  0  0
 78 79  1  0  0  0  0
M  END
$$$$
