 energy: -175.100606944368 gnorm: 0.002670462776 xtb: 6.7.1 (edcfbbe)
          08202606263D

111124  0     0  0            999 V2000
    2.1075    1.6400  -10.4020 C   0  0  0  0  0  0  0  0  0  0  0  0
   -0.4996   -4.5765    6.4364 H   0  0  0  0  0  0  0  0  0  0  0  0
    6.9396    1.0399  -13.6902 H   0  0  0  0  0  0  0  0  0  0  0  0
   -0.6622    5.8098    1.6891 H   0  0  0  0  0  0  0  0  0  0  0  0
    5.4179    1.2269   -9.2316 N   0  0  0  0  0  0  0  0  0  0  0  0
    3.2056    1.6545  -12.9763 N   0  0  0  0  0  0  0  0  0  0  0  0
    1.8877    2.7427    0.6399 C   0  0  0  0  0  0  0  0  0  0  0  0
    1.3251    1.5429   -1.5807 C   0  0  0  0  0  0  0  0  0  0  0  0
    0.6649    1.0671    2.5335 H   0  0  0  0  0  0  0  0  0  0  0  0
    0.2654    1.5546   -2.4681 C   0  0  0  0  0  0  0  0  0  0  0  0
    0.7575    1.5411   -3.7254 N   0  0  0  0  0  0  0  0  0  0  0  0
   -5.0863   -5.7290    9.4136 H   0  0  0  0  0  0  0  0  0  0  0  0
    3.3228   -0.3638    1.4928 H   0  0  0  0  0  0  0  0  0  0  0  0
    4.4923    1.3219   -6.2776 C   0  0  0  0  0  0  0  0  0  0  0  0
    0.2510    1.2360    0.2468 H   0  0  0  0  0  0  0  0  0  0  0  0
    2.2778    1.5292   -6.0690 O   0  0  0  0  0  0  0  0  0  0  0  0
    5.7816    1.1808   -6.7856 C   0  0  0  0  0  0  0  0  0  0  0  0
   -0.0464   -6.4880    7.9830 H   0  0  0  0  0  0  0  0  0  0  0  0
   -2.8110   -7.1682    5.9757 C   0  0  0  0  0  0  0  0  0  0  0  0
   -2.7015    3.6676   -1.5589 H   0  0  0  0  0  0  0  0  0  0  0  0
   -4.1815   -2.2958    5.3930 C   0  0  0  0  0  0  0  0  0  0  0  0
   -2.6807   -6.2827    8.8005 H   0  0  0  0  0  0  0  0  0  0  0  0
   -0.4381    2.9356    4.1242 H   0  0  0  0  0  0  0  0  0  0  0  0
    0.7592    5.3353    0.7412 H   0  0  0  0  0  0  0  0  0  0  0  0
   -5.6781   -1.1003    2.7295 C   0  0  0  0  0  0  0  0  0  0  0  0
   -5.1034   -6.8970    8.1017 H   0  0  0  0  0  0  0  0  0  0  0  0
   -5.2202    0.5241    0.9570 C   0  0  0  0  0  0  0  0  0  0  0  0
    2.3805    1.3757    0.7506 C   0  0  0  0  0  0  0  0  0  0  0  0
   -3.0175    1.7927    1.0553 C   0  0  0  0  0  0  0  0  0  0  0  0
   -6.0288   -0.4272    1.5561 C   0  0  0  0  0  0  0  0  0  0  0  0
    4.2018    1.3502   -4.9392 N   0  0  0  0  0  0  0  0  0  0  0  0
   -2.4542    0.3317    3.4023 C   0  0  0  0  0  0  0  0  0  0  0  0
   -4.2638   -4.0440    6.8284 C   0  0  0  0  0  0  0  0  0  0  0  0
   -1.4653    1.1413    2.8851 C   0  0  0  0  0  0  0  0  0  0  0  0
    3.4782    1.4864  -10.6377 C   0  0  0  0  0  0  0  0  0  0  0  0
    4.1291    1.3814   -9.3805 C   0  0  0  0  0  0  0  0  0  0  0  0
    4.9994    1.4253  -14.5317 C   0  0  0  0  0  0  0  0  0  0  0  0
    0.3560    0.3660    4.3615 N   0  0  0  0  0  0  0  0  0  0  0  0
    2.9142    1.4667   -4.8563 C   0  0  0  0  0  0  0  0  0  0  0  0
   -6.3196   -1.8807    3.1105 H   0  0  0  0  0  0  0  0  0  0  0  0
   -0.5059   -6.7098    7.0311 C   0  0  0  0  0  0  0  0  0  0  0  0
   -2.2364   -7.6552    5.1916 H   0  0  0  0  0  0  0  0  0  0  0  0
    5.4230    1.2280  -12.1893 C   0  0  0  0  0  0  0  0  0  0  0  0
    1.3800    1.7466  -11.1853 H   0  0  0  0  0  0  0  0  0  0  0  0
   -3.3920   -3.2399    6.0777 C   0  0  0  0  0  0  0  0  0  0  0  0
   -5.4845   -2.5716    5.7597 C   0  0  0  0  0  0  0  0  0  0  0  0
   -3.6131   -6.5969    5.5115 H   0  0  0  0  0  0  0  0  0  0  0  0
    6.5667    1.0972   -6.0476 H   0  0  0  0  0  0  0  0  0  0  0  0
   -4.0220   -5.1105    7.6713 C   0  0  0  0  0  0  0  0  0  0  0  0
    1.4378    3.1921    2.0032 C   0  0  0  0  0  0  0  0  0  0  0  0
    4.0583    3.1070    3.8680 H   0  0  0  0  0  0  0  0  0  0  0  0
   -1.0162    3.1296    1.3445 C   0  0  0  0  0  0  0  0  0  0  0  0
   -1.9216   -6.2645    6.7994 C   0  0  0  0  0  0  0  0  0  0  0  0
    4.7685    0.9818    3.0133 H   0  0  0  0  0  0  0  0  0  0  0  0
   -0.0977    0.8660    3.2767 C   0  0  0  0  0  0  0  0  0  0  0  0
   -3.7352   -1.2669    4.4865 C   0  0  0  0  0  0  0  0  0  0  0  0
   -0.2891   -0.0857    5.4528 C   0  0  0  0  0  0  0  0  0  0  0  0
   -0.7911   -5.5626    6.1060 C   0  0  0  0  0  0  0  0  0  0  0  0
   -5.5131    1.0045    0.0374 H   0  0  0  0  0  0  0  0  0  0  0  0
   -2.0160   -4.7273    8.2884 H   0  0  0  0  0  0  0  0  0  0  0  0
    1.2135    1.5826   -0.1150 C   0  0  0  0  0  0  0  0  0  0  0  0
   -5.1499   -5.8309    8.3277 C   0  0  0  0  0  0  0  0  0  0  0  0
    0.9409    5.7658    2.4292 H   0  0  0  0  0  0  0  0  0  0  0  0
   -6.4073   -2.0839    5.5150 H   0  0  0  0  0  0  0  0  0  0  0  0
    3.2699    1.4408   -6.9918 C   0  0  0  0  0  0  0  0  0  0  0  0
   -1.3102    4.4175    3.7265 H   0  0  0  0  0  0  0  0  0  0  0  0
    3.1754    0.7044    1.5758 C   0  0  0  0  0  0  0  0  0  0  0  0
    6.1347    1.1339   -8.1233 C   0  0  0  0  0  0  0  0  0  0  0  0
   -1.7879   -1.1636    6.4564 H   0  0  0  0  0  0  0  0  0  0  0  0
   -1.3392    3.6811    0.1119 C   0  0  0  0  0  0  0  0  0  0  0  0
    3.4601    2.6182    3.1070 C   0  0  0  0  0  0  0  0  0  0  0  0
    0.2216    1.5351   -4.5779 H   0  0  0  0  0  0  0  0  0  0  0  0
    2.1240    1.5143   -3.6768 C   0  0  0  0  0  0  0  0  0  0  0  0
   -0.7885    1.5670   -2.2688 H   0  0  0  0  0  0  0  0  0  0  0  0
   -3.3105    2.3871   -0.1001 N   0  0  0  0  0  0  0  0  0  0  0  0
    1.8413    1.6337   -9.0347 C   0  0  0  0  0  0  0  0  0  0  0  0
    5.8912    1.2139  -13.4886 C   0  0  0  0  0  0  0  0  0  0  0  0
   -0.6663   -5.7134    5.0440 H   0  0  0  0  0  0  0  0  0  0  0  0
   -2.4565    3.2495   -0.5908 C   0  0  0  0  0  0  0  0  0  0  0  0
    5.3261    1.4230  -15.5604 H   0  0  0  0  0  0  0  0  0  0  0  0
   -2.5059   -0.6217    4.5173 C   0  0  0  0  0  0  0  0  0  0  0  0
    2.2380    3.1923    2.9843 N   0  0  0  0  0  0  0  0  0  0  0  0
   -0.7497    4.4706   -0.3183 H   0  0  0  0  0  0  0  0  0  0  0  0
   -5.5499   -3.6050    6.6142 O   0  0  0  0  0  0  0  0  0  0  0  0
    3.5103    1.5005   -1.9827 H   0  0  0  0  0  0  0  0  0  0  0  0
   -0.1841   -7.6480    6.6052 H   0  0  0  0  0  0  0  0  0  0  0  0
   -1.8048    2.0292    1.7844 C   0  0  0  0  0  0  0  0  0  0  0  0
   -1.5259   -0.6534    5.5390 C   0  0  0  0  0  0  0  0  0  0  0  0
    0.2838    5.2742    1.7162 C   0  0  0  0  0  0  0  0  0  0  0  0
    2.9259    1.8083  -14.9834 H   0  0  0  0  0  0  0  0  0  0  0  0
    2.5027    1.5205   -2.3442 C   0  0  0  0  0  0  0  0  0  0  0  0
    0.0648    3.8132    2.1778 C   0  0  0  0  0  0  0  0  0  0  0  0
    0.8738    1.7323   -8.5768 H   0  0  0  0  0  0  0  0  0  0  0  0
   -2.6293   -5.5748    7.9688 C   0  0  0  0  0  0  0  0  0  0  0  0
   -2.3354   -3.3692    5.9978 H   0  0  0  0  0  0  0  0  0  0  0  0
   -3.2545   -7.9397    6.6040 H   0  0  0  0  0  0  0  0  0  0  0  0
    6.0766    1.0698  -11.3473 H   0  0  0  0  0  0  0  0  0  0  0  0
   -4.4873   -0.7726    3.3543 C   0  0  0  0  0  0  0  0  0  0  0  0
   -3.6941    0.2265    2.7459 C   0  0  0  0  0  0  0  0  0  0  0  0
    3.8851    1.4371    2.5891 C   0  0  0  0  0  0  0  0  0  0  0  0
    3.0407    1.4833   -8.3522 C   0  0  0  0  0  0  0  0  0  0  0  0
    0.3960    4.4682    4.2005 H   0  0  0  0  0  0  0  0  0  0  0  0
    7.1934    1.0040   -8.3349 H   0  0  0  0  0  0  0  0  0  0  0  0
    4.0596    1.4549  -11.9654 C   0  0  0  0  0  0  0  0  0  0  0  0
   -6.1074   -5.4395    7.9968 H   0  0  0  0  0  0  0  0  0  0  0  0
   -3.9999    0.8625    1.5524 C   0  0  0  0  0  0  0  0  0  0  0  0
    3.6671    1.6395  -14.2095 C   0  0  0  0  0  0  0  0  0  0  0  0
    0.3596   -0.1138    6.3219 H   0  0  0  0  0  0  0  0  0  0  0  0
   -6.9665   -0.6816    1.0821 H   0  0  0  0  0  0  0  0  0  0  0  0
   -0.3528    3.9054    3.6515 C   0  0  0  0  0  0  0  0  0  0  0  0
    2.4307    3.4745    0.0527 H   0  0  0  0  0  0  0  0  0  0  0  0
  1 35  4  0  0  0  0
  1 44  1  0  0  0  0
  1 76  4  0  0  0  0
  2 58  1  0  0  0  0
  3 77  1  0  0  0  0
  4 89  1  0  0  0  0
  5 36  4  0  0  0  0
  5 68  4  0  0  0  0
  6104  4  0  0  0  0
  6107  4  0  0  0  0
  7 28  1  0  0  0  0
  7 50  1  0  0  0  0
  7 61  1  0  0  0  0
  7111  1  0  0  0  0
  8 10  4  0  0  0  0
  8 61  1  0  0  0  0
  8 91  4  0  0  0  0
  9 55  1  0  0  0  0
 10 11  4  0  0  0  0
 10 74  1  0  0  0  0
 11 72  1  0  0  0  0
 11 73  4  0  0  0  0
 12 62  1  0  0  0  0
 13 67  1  0  0  0  0
 14 17  4  0  0  0  0
 14 31  4  0  0  0  0
 14 65  4  0  0  0  0
 15 61  1  0  0  0  0
 16 39  4  0  0  0  0
 16 65  4  0  0  0  0
 17 48  1  0  0  0  0
 17 68  4  0  0  0  0
 18 41  1  0  0  0  0
 19 42  1  0  0  0  0
 19 47  1  0  0  0  0
 19 53  1  0  0  0  0
 19 96  1  0  0  0  0
 20 79  1  0  0  0  0
 21 45  4  0  0  0  0
 21 46  4  0  0  0  0
 21 56  1  0  0  0  0
 22 94  1  0  0  0  0
 23110  1  0  0  0  0
 24 89  1  0  0  0  0
 25 30  4  0  0  0  0
 25 40  1  0  0  0  0
 25 98  4  0  0  0  0
 26 62  1  0  0  0  0
 27 30  4  0  0  0  0
 27 59  1  0  0  0  0
 27106  4  0  0  0  0
 28 61  1  0  0  0  0
 28 67  2  0  0  0  0
 29 75  4  0  0  0  0
 29 87  4  0  0  0  0
 29106  4  0  0  0  0
 30109  1  0  0  0  0
 31 39  4  0  0  0  0
 32 34  4  0  0  0  0
 32 81  1  0  0  0  0
 32 99  4  0  0  0  0
 33 45  4  0  0  0  0
 33 49  1  0  0  0  0
 33 84  4  0  0  0  0
 34 55  4  0  0  0  0
 34 87  4  0  0  0  0
 35 36  4  0  0  0  0
 35104  1  0  0  0  0
 36101  1  0  0  0  0
 37 77  4  0  0  0  0
 37 80  1  0  0  0  0
 37107  4  0  0  0  0
 38 55  4  0  0  0  0
 38 57  4  0  0  0  0
 39 73  1  0  0  0  0
 41 53  1  0  0  0  0
 41 58  1  0  0  0  0
 41 86  1  0  0  0  0
 43 77  4  0  0  0  0
 43 97  1  0  0  0  0
 43104  4  0  0  0  0
 45 95  1  0  0  0  0
 46 64  1  0  0  0  0
 46 84  4  0  0  0  0
 49 62  1  0  0  0  0
 49 94  1  0  0  0  0
 50 82  2  0  0  0  0
 50 92  1  0  0  0  0
 51 71  1  0  0  0  0
 52 70  4  0  0  0  0
 52 87  4  0  0  0  0
 52 92  1  0  0  0  0
 53 58  1  0  0  0  0
 53 94  1  0  0  0  0
 54100  1  0  0  0  0
 56 81  4  0  0  0  0
 56 98  4  0  0  0  0
 57 88  4  0  0  0  0
 57108  1  0  0  0  0
 58 78  1  0  0  0  0
 60 94  1  0  0  0  0
 62105  1  0  0  0  0
 63 89  1  0  0  0  0
 65101  4  0  0  0  0
 66110  1  0  0  0  0
 67100  1  0  0  0  0
 68103  1  0  0  0  0
 69 88  1  0  0  0  0
 70 79  4  0  0  0  0
 70 83  1  0  0  0  0
 71 82  1  0  0  0  0
 71100  2  0  0  0  0
 73 91  4  0  0  0  0
 75 79  4  0  0  0  0
 76 93  1  0  0  0  0
 76101  4  0  0  0  0
 81 88  4  0  0  0  0
 85 91  1  0  0  0  0
 89 92  1  0  0  0  0
 90107  1  0  0  0  0
 92110  1  0  0  0  0
 98 99  4  0  0  0  0
 99106  4  0  0  0  0
102110  1  0  0  0  0
M  END
$$$$
