00089
     RDKit          3D

111124  0  0  0  0  0  0  0  0999 V2000
    2.9257    2.7426   -9.5962 C   0  0  0  0  0  0  0  0  0  0  0  0
   -0.9536   -5.3608    8.7363 H   0  0  0  0  0  0  0  0  0  0  0  0
    4.9063    0.5893  -15.1525 H   0  0  0  0  0  0  0  0  0  0  0  0
   -0.9457    6.7226    1.5559 H   0  0  0  0  0  0  0  0  0  0  0  0
    5.1087   -0.0776   -9.7359 N   0  0  0  0  0  0  0  0  0  0  0  0
    3.2596    3.1401  -12.6299 N   0  0  0  0  0  0  0  0  0  0  0  0
    2.0244    2.7949    0.9981 C   0  0  0  0  0  0  0  0  0  0  0  0
    2.4754    0.8329   -0.8074 C   0  0  0  0  0  0  0  0  0  0  0  0
    0.4907    0.3207    1.0459 H   0  0  0  0  0  0  0  0  0  0  0  0
    1.2922    0.3003   -1.5758 C   0  0  0  0  0  0  0  0  0  0  0  0
    1.6787    0.1799   -2.9237 N   0  0  0  0  0  0  0  0  0  0  0  0
   -6.0006   -6.7539    9.5965 H   0  0  0  0  0  0  0  0  0  0  0  0
    5.2798    2.3274    2.2635 H   0  0  0  0  0  0  0  0  0  0  0  0
    5.0334   -0.4064   -6.4300 C   0  0  0  0  0  0  0  0  0  0  0  0
    3.3207    0.6401    1.2039 H   0  0  0  0  0  0  0  0  0  0  0  0
    3.2076    0.4926   -5.6390 O   0  0  0  0  0  0  0  0  0  0  0  0
    5.9110   -0.9297   -7.4888 C   0  0  0  0  0  0  0  0  0  0  0  0
   -0.7111   -7.7888    8.9061 H   0  0  0  0  0  0  0  0  0  0  0  0
   -3.0224   -7.6192    6.3355 C   0  0  0  0  0  0  0  0  0  0  0  0
   -4.3768    4.9343   -0.7154 H   0  0  0  0  0  0  0  0  0  0  0  0
   -3.8879   -2.9887    4.9388 C   0  0  0  0  0  0  0  0  0  0  0  0
   -3.8759   -7.8080    8.9584 H   0  0  0  0  0  0  0  0  0  0  0  0
    0.8439    4.3464    3.8665 H   0  0  0  0  0  0  0  0  0  0  0  0
    0.0361    6.1528    0.0172 H   0  0  0  0  0  0  0  0  0  0  0  0
   -6.0369   -0.9815    2.7971 C   0  0  0  0  0  0  0  0  0  0  0  0
   -6.8060   -6.2488    8.0442 H   0  0  0  0  0  0  0  0  0  0  0  0
   -5.8140    1.0468    1.3681 C   0  0  0  0  0  0  0  0  0  0  0  0
    3.3860    2.6676    1.2473 C   0  0  0  0  0  0  0  0  0  0  0  0
   -3.4997    2.1475    1.0119 C   0  0  0  0  0  0  0  0  0  0  0  0
   -6.5767   -0.0014    1.9471 C   0  0  0  0  0  0  0  0  0  0  0  0
    4.9676   -0.5135   -4.9134 N   0  0  0  0  0  0  0  0  0  0  0  0
   -2.4204    0.0790    2.6303 C   0  0  0  0  0  0  0  0  0  0  0  0
   -4.2762   -4.7853    6.6870 C   0  0  0  0  0  0  0  0  0  0  0  0
   -1.5449    1.0242    1.8997 C   0  0  0  0  0  0  0  0  0  0  0  0
    3.6544    1.8374  -10.4248 C   0  0  0  0  0  0  0  0  0  0  0  0
    4.2218    0.8380   -9.4650 C   0  0  0  0  0  0  0  0  0  0  0  0
    3.9318    2.5316  -14.9176 C   0  0  0  0  0  0  0  0  0  0  0  0
    0.2975    0.1342    3.1749 N   0  0  0  0  0  0  0  0  0  0  0  0
    3.7251    0.1041   -4.4673 C   0  0  0  0  0  0  0  0  0  0  0  0
   -6.7626   -1.6929    3.2466 H   0  0  0  0  0  0  0  0  0  0  0  0
   -1.0667   -7.3232    7.9085 C   0  0  0  0  0  0  0  0  0  0  0  0
   -2.6500   -7.1649    5.3831 H   0  0  0  0  0  0  0  0  0  0  0  0
    4.3692    1.0894  -12.9566 C   0  0  0  0  0  0  0  0  0  0  0  0
    2.4126    3.6213   -9.9218 H   0  0  0  0  0  0  0  0  0  0  0  0
   -3.1916   -4.1886    5.7236 C   0  0  0  0  0  0  0  0  0  0  0  0
   -5.2742   -3.2797    5.3013 C   0  0  0  0  0  0  0  0  0  0  0  0
   -4.1521   -7.6693    6.3584 H   0  0  0  0  0  0  0  0  0  0  0  0
    6.7645   -1.5713   -7.0489 H   0  0  0  0  0  0  0  0  0  0  0  0
   -4.5051   -5.8392    7.9595 C   0  0  0  0  0  0  0  0  0  0  0  0
    1.6645    4.3333    1.4715 C   0  0  0  0  0  0  0  0  0  0  0  0
    4.3333    6.6177    2.1792 H   0  0  0  0  0  0  0  0  0  0  0  0
   -1.5216    3.6869    0.9695 C   0  0  0  0  0  0  0  0  0  0  0  0
   -2.2928   -6.8639    7.6077 C   0  0  0  0  0  0  0  0  0  0  0  0
    5.9665    4.6802    2.5241 H   0  0  0  0  0  0  0  0  0  0  0  0
   -0.1591    0.5982    2.0003 C   0  0  0  0  0  0  0  0  0  0  0  0
   -3.5694   -1.7220    3.9746 C   0  0  0  0  0  0  0  0  0  0  0  0
    0.0869   -0.6976    4.1386 C   0  0  0  0  0  0  0  0  0  0  0  0
   -1.1807   -5.9423    7.7174 C   0  0  0  0  0  0  0  0  0  0  0  0
   -6.3268    1.8481    0.7741 H   0  0  0  0  0  0  0  0  0  0  0  0
   -2.9723   -6.6521    9.6813 H   0  0  0  0  0  0  0  0  0  0  0  0
    2.7739    1.5178    0.5845 C   0  0  0  0  0  0  0  0  0  0  0  0
   -5.9390   -5.9803    8.6829 C   0  0  0  0  0  0  0  0  0  0  0  0
    0.7965    6.9074    1.3406 H   0  0  0  0  0  0  0  0  0  0  0  0
   -6.2020   -2.9512    4.8858 H   0  0  0  0  0  0  0  0  0  0  0  0
    4.0157    0.3845   -6.8234 C   0  0  0  0  0  0  0  0  0  0  0  0
   -0.9162    4.1398    3.6768 H   0  0  0  0  0  0  0  0  0  0  0  0
    4.5014    3.1174    1.8881 C   0  0  0  0  0  0  0  0  0  0  0  0
    5.8452   -0.7720   -8.9124 C   0  0  0  0  0  0  0  0  0  0  0  0
   -1.1908   -2.1255    5.3053 H   0  0  0  0  0  0  0  0  0  0  0  0
   -2.3632    4.5398    0.2578 C   0  0  0  0  0  0  0  0  0  0  0  0
    3.9246    5.5196    1.9794 C   0  0  0  0  0  0  0  0  0  0  0  0
    1.0602   -0.0033   -3.7417 H   0  0  0  0  0  0  0  0  0  0  0  0
    3.0718    0.2985   -3.0421 C   0  0  0  0  0  0  0  0  0  0  0  0
    0.2098    0.0888   -1.2784 H   0  0  0  0  0  0  0  0  0  0  0  0
   -4.2195    3.0835    0.3228 N   0  0  0  0  0  0  0  0  0  0  0  0
    2.9519    2.2523   -8.1924 C   0  0  0  0  0  0  0  0  0  0  0  0
    4.4451    1.3499  -14.4209 C   0  0  0  0  0  0  0  0  0  0  0  0
   -0.6681   -5.3264    6.9843 H   0  0  0  0  0  0  0  0  0  0  0  0
   -3.6869    4.2393   -0.1160 C   0  0  0  0  0  0  0  0  0  0  0  0
    3.9983    2.7685  -16.0539 H   0  0  0  0  0  0  0  0  0  0  0  0
   -2.2338   -1.0172    3.6391 C   0  0  0  0  0  0  0  0  0  0  0  0
    2.6078    5.3464    1.7033 N   0  0  0  0  0  0  0  0  0  0  0  0
   -2.1523    5.6520    0.0037 H   0  0  0  0  0  0  0  0  0  0  0  0
   -5.4278   -4.2311    6.3419 O   0  0  0  0  0  0  0  0  0  0  0  0
    4.6176    0.5127   -1.4230 H   0  0  0  0  0  0  0  0  0  0  0  0
   -0.5144   -8.0562    7.1557 H   0  0  0  0  0  0  0  0  0  0  0  0
   -2.0928    2.2503    1.2364 C   0  0  0  0  0  0  0  0  0  0  0  0
   -1.1462   -1.3490    4.4407 C   0  0  0  0  0  0  0  0  0  0  0  0
   -0.0455    6.1398    1.0894 C   0  0  0  0  0  0  0  0  0  0  0  0
    2.9275    4.3343  -14.4087 H   0  0  0  0  0  0  0  0  0  0  0  0
    3.5876    0.5808   -1.7272 C   0  0  0  0  0  0  0  0  0  0  0  0
    0.1305    4.6304    1.6945 C   0  0  0  0  0  0  0  0  0  0  0  0
    2.4417    2.7414   -7.3376 H   0  0  0  0  0  0  0  0  0  0  0  0
   -3.4345   -6.7918    8.6623 C   0  0  0  0  0  0  0  0  0  0  0  0
   -2.2738   -4.6931    5.6347 H   0  0  0  0  0  0  0  0  0  0  0  0
   -2.7189   -8.7205    6.3327 H   0  0  0  0  0  0  0  0  0  0  0  0
    4.8535    0.1123  -12.5882 H   0  0  0  0  0  0  0  0  0  0  0  0
   -4.5556   -0.9741    3.0776 C   0  0  0  0  0  0  0  0  0  0  0  0
   -3.8567    0.0875    2.3988 C   0  0  0  0  0  0  0  0  0  0  0  0
    4.8801    4.4624    2.1435 C   0  0  0  0  0  0  0  0  0  0  0  0
    3.7739    1.0509   -8.0875 C   0  0  0  0  0  0  0  0  0  0  0  0
   -0.0986    5.8066    3.7112 H   0  0  0  0  0  0  0  0  0  0  0  0
    6.6828   -1.3722   -9.5873 H   0  0  0  0  0  0  0  0  0  0  0  0
    3.7401    1.9998  -11.9604 C   0  0  0  0  0  0  0  0  0  0  0  0
   -6.2871   -5.0029    8.9743 H   0  0  0  0  0  0  0  0  0  0  0  0
   -4.3786    1.0949    1.5815 C   0  0  0  0  0  0  0  0  0  0  0  0
    3.3448    3.3870  -13.9651 C   0  0  0  0  0  0  0  0  0  0  0  0
    0.9685   -0.9585    4.8601 H   0  0  0  0  0  0  0  0  0  0  0  0
   -7.7381   -0.0034    1.7515 H   0  0  0  0  0  0  0  0  0  0  0  0
   -0.0686    4.7056    3.2623 C   0  0  0  0  0  0  0  0  0  0  0  0
    0.8560    2.6943    0.7237 H   0  0  0  0  0  0  0  0  0  0  0  0
  1 35  4  0
  1 44  1  0
  1 76  4  0
  2 58  1  0
  3 77  1  0
  4 89  1  0
  5 36  4  0
  5 68  4  0
  6104  4  0
  6107  4  0
  7 28  1  0
  7 50  1  0
  7 61  1  0
  7111  1  0
  8 10  4  0
  8 61  1  0
  8 91  4  0
  9 55  1  0
 10 11  4  0
 10 74  1  0
 11 72  1  0
 11 73  4  0
 12 62  1  0
 13 67  1  0
 14 17  4  0
 14 31  4  0
 14 65  4  0
 15 61  1  0
 16 39  4  0
 16 65  4  0
 17 48  1  0
 17 68  4  0
 18 41  1  0
 19 42  1  0
 19 47  1  0
 19 53  1  0
 19 96  1  0
 20 79  1  0
 21 45  4  0
 21 46  4  0
 21 56  1  0
 22 94  1  0
 23110  1  0
 24 89  1  0
 25 30  4  0
 25 40  1  0
 25 98  4  0
 26 62  1  0
 27 30  4  0
 27 59  1  0
 27106  4  0
 28 61  1  0
 28 67  2  0
 29 75  4  0
 29 87  4  0
 29106  4  0
 30109  1  0
 31 39  4  0
 32 34  4  0
 32 81  1  0
 32 99  4  0
 33 45  4  0
 33 49  1  0
 33 84  4  0
 34 55  4  0
 34 87  4  0
 35 36  4  0
 35104  1  0
 36101  1  0
 37 77  4  0
 37 80  1  0
 37107  4  0
 38 55  4  0
 38 57  4  0
 39 73  1  0
 41 53  1  0
 41 58  1  0
 41 86  1  0
 43 77  4  0
 43 97  1  0
 43104  4  0
 45 95  1  0
 46 64  1  0
 46 84  4  0
 49 62  1  0
 49 94  1  0
 50 82  2  0
 50 92  1  0
 51 71  1  0
 52 70  4  0
 52 87  4  0
 52 92  1  0
 53 58  1  0
 53 94  1  0
 54100  1  0
 56 81  4  0
 56 98  4  0
 57 88  4  0
 57108  1  0
 58 78  1  0
 60 94  1  0
 62105  1  0
 63 89  1  0
 65101  4  0
 66110  1  0
 67100  1  0
 68103  1  0
 69 88  1  0
 70 79  4  0
 70 83  1  0
 71 82  1  0
 71100  2  0
 73 91  4  0
 75 79  4  0
 76 93  1  0
 76101  4  0
 81 88  4  0
 85 91  1  0
 89 92  1  0
 90107  1  0
 92110  1  0
 98 99  4  0
 99106  4  0
102110  1  0
M  END
>  <generation_index>  (1) 
89

>  <target_raw_property>  (1) 
0.5

>  <num_atoms>  (1) 
111

>  <sanitize_ok>  (1) 
True

>  <single_component>  (1) 
True

>  <canonical_smiles>  (1) 
[H]C1=C([H])C([H])=C2C([H])(C(C(c3c([H])c([H])nc4c3c3c([H])nc([H])c([H])c5c(-c6c([H])oc(C(C([H])([H])[H])C([H])([H])C7(C([H])([H])[H])C([H])([H])C7([H])[H])c6[H])c6c([H])c([H])c([H])c4c6c3-5)(C([H])([H])[H])C([H])([H])[H])=N1)C2([H])c1c([H])c(-c2nc3c([H])c([H])nc4c(-c5nc([H])c([H])c([H])c5[H])c([H])c([H])c-4c3o2)n([H])c1[H]

>  <is_unique_generated>  (1) 
True

>  <dataset_membership_checked>  (1) 
True

>  <in_train_dataset>  (1) 
False

>  <in_val_dataset>  (1) 
False

>  <in_test_dataset>  (1) 
False

>  <in_any_dataset>  (1) 
False

>  <is_novel>  (1) 
True

$$$$
