00043
     RDKit          3D

 70 79  0  0  0  0  0  0  0  0999 V2000
   12.8338    0.9872   -0.9149 H   0  0  0  0  0  0  0  0  0  0  0  0
   -5.4051    0.2091    1.7932 C   0  0  0  0  0  0  0  0  0  0  0  0
    8.7274   -3.1771   -1.2570 H   0  0  0  0  0  0  0  0  0  0  0  0
   -7.4464   -0.5325    5.5683 H   0  0  0  0  0  0  0  0  0  0  0  0
   -2.4361   -0.7520   -0.5447 C   0  0  0  0  0  0  0  0  0  0  0  0
   -6.3900    1.2855    1.6536 N   0  0  0  0  0  0  0  0  0  0  0  0
  -11.7576    3.0459    2.8069 C   0  0  0  0  0  0  0  0  0  0  0  0
   -5.6522    0.2261   -0.9668 H   0  0  0  0  0  0  0  0  0  0  0  0
   -4.6753   -0.0763   -0.6364 C   0  0  0  0  0  0  0  0  0  0  0  0
   -7.8082    0.0747    4.7954 C   0  0  0  0  0  0  0  0  0  0  0  0
   -6.1344    2.3569    0.9245 C   0  0  0  0  0  0  0  0  0  0  0  0
   11.3452   -1.1481   -1.1064 N   0  0  0  0  0  0  0  0  0  0  0  0
  -12.0658    2.2669    4.8521 H   0  0  0  0  0  0  0  0  0  0  0  0
  -11.3458    2.3248    3.9196 C   0  0  0  0  0  0  0  0  0  0  0  0
   -3.6081   -0.5211   -1.4010 C   0  0  0  0  0  0  0  0  0  0  0  0
   -7.0741    0.2445    3.5835 C   0  0  0  0  0  0  0  0  0  0  0  0
   -9.4053    0.7461    5.3136 S   0  0  0  0  0  0  0  0  0  0  0  0
    4.4088   -3.3563   -2.4410 H   0  0  0  0  0  0  0  0  0  0  0  0
   10.7257    0.0601   -1.0788 C   0  0  0  0  0  0  0  0  0  0  0  0
   -1.0566   -1.0653   -0.7821 C   0  0  0  0  0  0  0  0  0  0  0  0
   -5.2493   -1.1299    3.5967 H   0  0  0  0  0  0  0  0  0  0  0  0
    9.1966   -2.2036   -1.2566 C   0  0  0  0  0  0  0  0  0  0  0  0
    6.1505   -2.1490   -2.0145 C   0  0  0  0  0  0  0  0  0  0  0  0
   11.1644    2.4565   -0.8470 C   0  0  0  0  0  0  0  0  0  0  0  0
    1.8725   -1.6934   -3.7860 C   0  0  0  0  0  0  0  0  0  0  0  0
    6.7710   -3.0541   -2.2826 H   0  0  0  0  0  0  0  0  0  0  0  0
   -4.3335   -0.0983    0.7587 N   0  0  0  0  0  0  0  0  0  0  0  0
   -5.7923    3.3008    0.4377 N   0  0  0  0  0  0  0  0  0  0  0  0
   -2.1121   -0.8295    1.8191 C   0  0  0  0  0  0  0  0  0  0  0  0
    1.9968   -1.6291    0.4921 H   0  0  0  0  0  0  0  0  0  0  0  0
    2.3070   -1.4815   -2.4212 C   0  0  0  0  0  0  0  0  0  0  0  0
   -2.9141   -0.5607    0.7630 C   0  0  0  0  0  0  0  0  0  0  0  0
    9.2272    0.2162   -1.1773 C   0  0  0  0  0  0  0  0  0  0  0  0
    8.3891   -0.9590   -1.3899 C   0  0  0  0  0  0  0  0  0  0  0  0
  -10.0456    1.7114    3.9483 C   0  0  0  0  0  0  0  0  0  0  0  0
    3.6321    0.8239   -1.6777 H   0  0  0  0  0  0  0  0  0  0  0  0
   -1.2648   -0.5552   -3.6878 H   0  0  0  0  0  0  0  0  0  0  0  0
   -9.5420    2.4748    1.7359 C   0  0  0  0  0  0  0  0  0  0  0  0
    9.2833    3.5841   -0.9015 H   0  0  0  0  0  0  0  0  0  0  0  0
    1.1864   -1.5300   -0.1318 C   0  0  0  0  0  0  0  0  0  0  0  0
    6.0824    1.1854   -1.2749 H   0  0  0  0  0  0  0  0  0  0  0  0
   -5.7871   -0.3764    3.0651 C   0  0  0  0  0  0  0  0  0  0  0  0
   -2.5297   -0.7931    2.8662 H   0  0  0  0  0  0  0  0  0  0  0  0
   11.8531    3.3476   -0.7299 H   0  0  0  0  0  0  0  0  0  0  0  0
   10.6059   -2.2376   -1.1557 C   0  0  0  0  0  0  0  0  0  0  0  0
   -0.2009   -1.2506    0.3326 C   0  0  0  0  0  0  0  0  0  0  0  0
  -10.8279    3.0968    1.7236 C   0  0  0  0  0  0  0  0  0  0  0  0
   -0.7535   -1.1738    1.6159 C   0  0  0  0  0  0  0  0  0  0  0  0
   -8.9708    1.7630    2.7731 C   0  0  0  0  0  0  0  0  0  0  0  0
    0.5740   -1.6389   -4.1175 N   0  0  0  0  0  0  0  0  0  0  0  0
   -0.6226   -1.4083   -3.3380 C   0  0  0  0  0  0  0  0  0  0  0  0
    3.7983   -1.3023   -2.1295 C   0  0  0  0  0  0  0  0  0  0  0  0
    1.1858   -1.4294   -1.5698 C   0  0  0  0  0  0  0  0  0  0  0  0
   -7.5361    1.1708    2.6136 C   0  0  0  0  0  0  0  0  0  0  0  0
    4.7531   -2.3450   -2.1922 C   0  0  0  0  0  0  0  0  0  0  0  0
  -12.8137    3.5542    2.7669 H   0  0  0  0  0  0  0  0  0  0  0  0
   -0.1929   -1.3200   -1.9721 C   0  0  0  0  0  0  0  0  0  0  0  0
   11.1829   -3.2080   -1.1055 H   0  0  0  0  0  0  0  0  0  0  0  0
    2.6295   -1.9464   -4.5176 H   0  0  0  0  0  0  0  0  0  0  0  0
   -0.0790   -1.3971    2.4673 H   0  0  0  0  0  0  0  0  0  0  0  0
   -3.5913   -0.6788   -2.4565 H   0  0  0  0  0  0  0  0  0  0  0  0
    8.8972    1.5292   -1.0782 N   0  0  0  0  0  0  0  0  0  0  0  0
    4.3380   -0.0330   -1.7552 C   0  0  0  0  0  0  0  0  0  0  0  0
    9.7266    2.5721   -0.9378 C   0  0  0  0  0  0  0  0  0  0  0  0
   -8.9773    2.5394    0.8315 H   0  0  0  0  0  0  0  0  0  0  0  0
   -1.4121   -2.2336   -3.5249 H   0  0  0  0  0  0  0  0  0  0  0  0
   11.6891    1.1896   -0.9407 C   0  0  0  0  0  0  0  0  0  0  0  0
  -11.1988    3.6614    0.8263 H   0  0  0  0  0  0  0  0  0  0  0  0
    5.7404    0.1809   -1.5247 C   0  0  0  0  0  0  0  0  0  0  0  0
    6.7344   -0.9117   -1.6206 C   0  0  0  0  0  0  0  0  0  0  0  0
  1 67  1  0
  2  6  4  0
  2 27  1  0
  2 42  4  0
  3 22  1  0
  4 10  1  0
  5 15  4  0
  5 20  4  0
  5 32  4  0
  6 11  1  0
  6 54  4  0
  7 14  4  0
  7 47  4  0
  7 56  1  0
  8  9  1  0
  9 15  4  0
  9 27  4  0
 10 16  1  0
 10 17  1  0
 11 28  3  0
 12 19  4  0
 12 45  4  0
 13 14  1  0
 14 35  4  0
 15 61  1  0
 16 42  4  0
 16 54  4  0
 17 35  1  0
 18 55  1  0
 19 33  4  0
 19 67  4  0
 20 46  4  0
 20 57  2  0
 21 42  1  0
 22 34  4  0
 22 45  4  0
 23 26  1  0
 23 55  4  0
 23 70  4  0
 24 44  1  0
 24 64  4  0
 24 67  4  0
 25 31  1  0
 25 50  2  0
 25 59  1  0
 27 32  4  0
 29 32  4  0
 29 43  1  0
 29 48  4  0
 30 40  1  0
 31 52  1  0
 31 53  2  0
 33 34  4  0
 33 62  4  0
 34 70  1  0
 35 49  4  0
 36 63  1  0
 37 51  1  0
 38 47  4  0
 38 49  4  0
 38 65  1  0
 39 64  1  0
 40 46  2  0
 40 53  1  0
 41 69  1  0
 45 58  1  0
 46 48  4  0
 47 68  1  0
 48 60  1  0
 49 54  1  0
 50 51  1  0
 51 57  1  0
 51 66  1  0
 52 55  4  0
 52 63  4  0
 53 57  1  0
 62 64  4  0
 63 69  4  0
 69 70  4  0
M  END
>  <generation_index>  (1) 
43

>  <target_raw_property>  (1) 
0.5

>  <num_atoms>  (1) 
70

>  <sanitize_ok>  (1) 
True

>  <single_component>  (1) 
True

>  <canonical_smiles>  (1) 
[H]C1=NC([H])([H])C2=c3c(c([H])c([H])c4c3c([H])c([H])n4-c3c([H])c4c(n3C#N)-c3c([H])c([H])c([H])c([H])c3SC4[H])=C([H])C2=C1c1c([H])c([H])c(-c2c([H])c([H])nc3c([H])c([H])c([H])nc23)c([H])c1[H]

>  <is_unique_generated>  (1) 
True

>  <dataset_membership_checked>  (1) 
True

>  <in_train_dataset>  (1) 
False

>  <in_val_dataset>  (1) 
False

>  <in_test_dataset>  (1) 
False

>  <in_any_dataset>  (1) 
False

>  <is_novel>  (1) 
True

$$$$
