 energy: -118.105538219540 gnorm: 0.001393701868 xtb: 6.7.1 (edcfbbe)
          08202606263D

 70 79  0     0  0            999 V2000
   11.7008    1.2264   -0.5643 H   0  0  0  0  0  0  0  0  0  0  0  0
   -5.2159    0.0475    1.3120 C   0  0  0  0  0  0  0  0  0  0  0  0
    8.0271   -3.2607   -0.5856 H   0  0  0  0  0  0  0  0  0  0  0  0
   -6.2525   -0.9337    5.1707 H   0  0  0  0  0  0  0  0  0  0  0  0
   -2.4049   -0.5339   -0.8220 C   0  0  0  0  0  0  0  0  0  0  0  0
   -6.3028    0.9203    1.1712 N   0  0  0  0  0  0  0  0  0  0  0  0
  -10.6564    2.9105    3.2891 C   0  0  0  0  0  0  0  0  0  0  0  0
   -5.6339   -0.2497   -1.3828 H   0  0  0  0  0  0  0  0  0  0  0  0
   -4.6191   -0.2997   -1.0402 C   0  0  0  0  0  0  0  0  0  0  0  0
   -6.7806   -0.2565    4.5250 C   0  0  0  0  0  0  0  0  0  0  0  0
   -6.4530    1.7080    0.1217 C   0  0  0  0  0  0  0  0  0  0  0  0
   10.5841   -1.1105   -0.4171 N   0  0  0  0  0  0  0  0  0  0  0  0
  -10.4461    1.9865    5.2128 H   0  0  0  0  0  0  0  0  0  0  0  0
  -10.0251    2.1130    4.2268 C   0  0  0  0  0  0  0  0  0  0  0  0
   -3.4776   -0.5455   -1.7456 C   0  0  0  0  0  0  0  0  0  0  0  0
   -6.3772    0.0201    3.2449 C   0  0  0  0  0  0  0  0  0  0  0  0
   -8.1753    0.4743    5.2289 S   0  0  0  0  0  0  0  0  0  0  0  0
    4.1392   -3.0959   -2.9631 H   0  0  0  0  0  0  0  0  0  0  0  0
    9.9275    0.0260   -0.7224 C   0  0  0  0  0  0  0  0  0  0  0  0
   -0.9973   -0.7054   -0.9363 C   0  0  0  0  0  0  0  0  0  0  0  0
   -4.5598   -1.2395    2.9333 H   0  0  0  0  0  0  0  0  0  0  0  0
    8.5233   -2.3039   -0.6493 C   0  0  0  0  0  0  0  0  0  0  0  0
    5.8581   -2.2491   -2.0290 C   0  0  0  0  0  0  0  0  0  0  0  0
    9.9728    2.3908   -1.0970 C   0  0  0  0  0  0  0  0  0  0  0  0
    1.9050   -1.5683   -3.6766 C   0  0  0  0  0  0  0  0  0  0  0  0
    6.5204   -3.0168   -2.4022 H   0  0  0  0  0  0  0  0  0  0  0  0
   -4.3124   -0.1384    0.2904 N   0  0  0  0  0  0  0  0  0  0  0  0
   -6.5302    2.3749   -0.8096 N   0  0  0  0  0  0  0  0  0  0  0  0
   -2.1586   -0.1385    1.6082 C   0  0  0  0  0  0  0  0  0  0  0  0
    1.9701   -0.7783    0.6346 H   0  0  0  0  0  0  0  0  0  0  0  0
    2.2453   -1.2945   -2.2946 C   0  0  0  0  0  0  0  0  0  0  0  0
   -2.9454   -0.2816    0.4400 C   0  0  0  0  0  0  0  0  0  0  0  0
    8.5324    0.0624   -1.0004 C   0  0  0  0  0  0  0  0  0  0  0  0
    7.8086   -1.1644   -0.9556 C   0  0  0  0  0  0  0  0  0  0  0  0
   -8.8419    1.4589    3.9203 C   0  0  0  0  0  0  0  0  0  0  0  0
    3.5021    0.5119   -0.7635 H   0  0  0  0  0  0  0  0  0  0  0  0
   -0.8638   -0.3425   -3.8904 H   0  0  0  0  0  0  0  0  0  0  0  0
   -8.9169    2.4067    1.7128 C   0  0  0  0  0  0  0  0  0  0  0  0
    8.0382    3.2010   -1.6395 H   0  0  0  0  0  0  0  0  0  0  0  0
    1.1369   -0.7790   -0.0413 C   0  0  0  0  0  0  0  0  0  0  0  0
    5.8876    0.5767   -0.1808 H   0  0  0  0  0  0  0  0  0  0  0  0
   -5.2427   -0.5095    2.5500 C   0  0  0  0  0  0  0  0  0  0  0  0
   -2.6298    0.1078    2.5480 H   0  0  0  0  0  0  0  0  0  0  0  0
   10.4790    3.3424   -1.1506 H   0  0  0  0  0  0  0  0  0  0  0  0
    9.8984   -2.2197   -0.3878 C   0  0  0  0  0  0  0  0  0  0  0  0
   -0.1884   -0.5832    0.2820 C   0  0  0  0  0  0  0  0  0  0  0  0
  -10.0938    3.0502    2.0289 C   0  0  0  0  0  0  0  0  0  0  0  0
   -0.8083   -0.2909    1.5241 C   0  0  0  0  0  0  0  0  0  0  0  0
   -8.2471    1.5928    2.6442 C   0  0  0  0  0  0  0  0  0  0  0  0
    0.7453   -1.5411   -4.2001 N   0  0  0  0  0  0  0  0  0  0  0  0
   -0.4033   -1.2221   -3.4164 C   0  0  0  0  0  0  0  0  0  0  0  0
    3.6501   -1.2919   -1.9061 C   0  0  0  0  0  0  0  0  0  0  0  0
    1.2062   -1.0222   -1.4401 C   0  0  0  0  0  0  0  0  0  0  0  0
   -7.0386    0.9064    2.3593 C   0  0  0  0  0  0  0  0  0  0  0  0
    4.5212   -2.2831   -2.3622 C   0  0  0  0  0  0  0  0  0  0  0  0
  -11.5773    3.4128    3.5399 H   0  0  0  0  0  0  0  0  0  0  0  0
   -0.1621   -0.9830   -1.9762 C   0  0  0  0  0  0  0  0  0  0  0  0
   10.4602   -3.1118   -0.1395 H   0  0  0  0  0  0  0  0  0  0  0  0
    2.7204   -1.7969   -4.3545 H   0  0  0  0  0  0  0  0  0  0  0  0
   -0.1901   -0.1810    2.4029 H   0  0  0  0  0  0  0  0  0  0  0  0
   -3.4164   -0.7161   -2.8014 H   0  0  0  0  0  0  0  0  0  0  0  0
    7.9045    1.2083   -1.3275 N   0  0  0  0  0  0  0  0  0  0  0  0
    4.1630   -0.2701   -1.1050 C   0  0  0  0  0  0  0  0  0  0  0  0
    8.5952    2.3119   -1.3705 C   0  0  0  0  0  0  0  0  0  0  0  0
   -8.5007    2.5281    0.7268 H   0  0  0  0  0  0  0  0  0  0  0  0
   -1.1223   -2.0394   -3.5692 H   0  0  0  0  0  0  0  0  0  0  0  0
   10.6423    1.2425   -0.7755 C   0  0  0  0  0  0  0  0  0  0  0  0
  -10.5765    3.6654    1.2853 H   0  0  0  0  0  0  0  0  0  0  0  0
    5.5043   -0.2255   -0.7894 C   0  0  0  0  0  0  0  0  0  0  0  0
    6.3749   -1.2111   -1.2526 C   0  0  0  0  0  0  0  0  0  0  0  0
  1 67  1  0  0  0  0
  2  6  4  0  0  0  0
  2 27  1  0  0  0  0
  2 42  4  0  0  0  0
  3 22  1  0  0  0  0
  4 10  1  0  0  0  0
  5 15  4  0  0  0  0
  5 20  4  0  0  0  0
  5 32  4  0  0  0  0
  6 11  1  0  0  0  0
  6 54  4  0  0  0  0
  7 14  4  0  0  0  0
  7 47  4  0  0  0  0
  7 56  1  0  0  0  0
  8  9  1  0  0  0  0
  9 15  4  0  0  0  0
  9 27  4  0  0  0  0
 10 16  1  0  0  0  0
 10 17  1  0  0  0  0
 11 28  3  0  0  0  0
 12 19  4  0  0  0  0
 12 45  4  0  0  0  0
 13 14  1  0  0  0  0
 14 35  4  0  0  0  0
 15 61  1  0  0  0  0
 16 42  4  0  0  0  0
 16 54  4  0  0  0  0
 17 35  1  0  0  0  0
 18 55  1  0  0  0  0
 19 33  4  0  0  0  0
 19 67  4  0  0  0  0
 20 46  4  0  0  0  0
 20 57  2  0  0  0  0
 21 42  1  0  0  0  0
 22 34  4  0  0  0  0
 22 45  4  0  0  0  0
 23 26  1  0  0  0  0
 23 55  4  0  0  0  0
 23 70  4  0  0  0  0
 24 44  1  0  0  0  0
 24 64  4  0  0  0  0
 24 67  4  0  0  0  0
 25 31  1  0  0  0  0
 25 50  2  0  0  0  0
 25 59  1  0  0  0  0
 27 32  4  0  0  0  0
 29 32  4  0  0  0  0
 29 43  1  0  0  0  0
 29 48  4  0  0  0  0
 30 40  1  0  0  0  0
 31 52  1  0  0  0  0
 31 53  2  0  0  0  0
 33 34  4  0  0  0  0
 33 62  4  0  0  0  0
 34 70  1  0  0  0  0
 35 49  4  0  0  0  0
 36 63  1  0  0  0  0
 37 51  1  0  0  0  0
 38 47  4  0  0  0  0
 38 49  4  0  0  0  0
 38 65  1  0  0  0  0
 39 64  1  0  0  0  0
 40 46  2  0  0  0  0
 40 53  1  0  0  0  0
 41 69  1  0  0  0  0
 45 58  1  0  0  0  0
 46 48  4  0  0  0  0
 47 68  1  0  0  0  0
 48 60  1  0  0  0  0
 49 54  1  0  0  0  0
 50 51  1  0  0  0  0
 51 57  1  0  0  0  0
 51 66  1  0  0  0  0
 52 55  4  0  0  0  0
 52 63  4  0  0  0  0
 53 57  1  0  0  0  0
 62 64  4  0  0  0  0
 63 69  4  0  0  0  0
 69 70  4  0  0  0  0
M  END
$$$$
