00045
     RDKit          3D

 83 92  0  0  0  0  0  0  0  0999 V2000
    3.5242   -2.5767    0.6674 C   0  0  0  0  0  0  0  0  0  0  0  0
    0.6232   -2.8235    6.5147 C   0  0  0  0  0  0  0  0  0  0  0  0
    0.4879   -3.1235    5.1955 N   0  0  0  0  0  0  0  0  0  0  0  0
    7.3047   -6.0812   -4.6858 H   0  0  0  0  0  0  0  0  0  0  0  0
    6.7071   -3.5501   -6.0580 H   0  0  0  0  0  0  0  0  0  0  0  0
   -0.6316   -4.2852   11.3013 H   0  0  0  0  0  0  0  0  0  0  0  0
    0.9895    0.6485   -3.5039 H   0  0  0  0  0  0  0  0  0  0  0  0
   -0.4591    1.8677   -1.7136 C   0  0  0  0  0  0  0  0  0  0  0  0
    3.2386   -1.8012   -2.8823 C   0  0  0  0  0  0  0  0  0  0  0  0
   -0.3895    2.2463   -2.6358 H   0  0  0  0  0  0  0  0  0  0  0  0
    1.4955   -1.7308    6.5957 N   0  0  0  0  0  0  0  0  0  0  0  0
   -1.7069   -5.4526    8.2211 C   0  0  0  0  0  0  0  0  0  0  0  0
   -3.9138    4.1171    1.9730 H   0  0  0  0  0  0  0  0  0  0  0  0
   -5.3286    7.2899   -3.3644 H   0  0  0  0  0  0  0  0  0  0  0  0
    2.6437   -0.2111    3.1415 C   0  0  0  0  0  0  0  0  0  0  0  0
    6.6692   -5.5710   -3.8597 C   0  0  0  0  0  0  0  0  0  0  0  0
    5.8675   -4.5215   -4.0524 C   0  0  0  0  0  0  0  0  0  0  0  0
   -3.6808    4.6258   -2.1195 C   0  0  0  0  0  0  0  0  0  0  0  0
   -0.5421    0.0893    1.1861 H   0  0  0  0  0  0  0  0  0  0  0  0
   -0.7732   -4.4084   10.1336 C   0  0  0  0  0  0  0  0  0  0  0  0
    3.0168   -1.8991   -1.4964 C   0  0  0  0  0  0  0  0  0  0  0  0
    5.2955   -4.4362   -0.9548 H   0  0  0  0  0  0  0  0  0  0  0  0
   -0.0458   -3.5835    9.2153 C   0  0  0  0  0  0  0  0  0  0  0  0
   -3.4293    6.6864   -0.9741 C   0  0  0  0  0  0  0  0  0  0  0  0
   -4.6918    4.0891   -3.0878 C   0  0  0  0  0  0  0  0  0  0  0  0
    4.9465   -3.6641   -3.0031 C   0  0  0  0  0  0  0  0  0  0  0  0
   -3.4350    7.7738   -1.0142 H   0  0  0  0  0  0  0  0  0  0  0  0
   -1.4897    2.4399   -0.8354 C   0  0  0  0  0  0  0  0  0  0  0  0
   -3.5964    3.7867    1.0375 N   0  0  0  0  0  0  0  0  0  0  0  0
   -6.9347    4.3672   -4.3564 C   0  0  0  0  0  0  0  0  0  0  0  0
    2.0899   -1.2323    2.2935 C   0  0  0  0  0  0  0  0  0  0  0  0
    1.3002   -0.1109   -1.4274 C   0  0  0  0  0  0  0  0  0  0  0  0
   -1.4143    1.7948    0.2840 O   0  0  0  0  0  0  0  0  0  0  0  0
    5.6900   -3.8660   -5.4665 C   0  0  0  0  0  0  0  0  0  0  0  0
    1.2348   -2.1789    4.3330 C   0  0  0  0  0  0  0  0  0  0  0  0
   -1.8962    5.8161    2.1110 H   0  0  0  0  0  0  0  0  0  0  0  0
    2.1331   -1.0742   -0.6291 C   0  0  0  0  0  0  0  0  0  0  0  0
    1.5292   -0.0529   -2.8477 C   0  0  0  0  0  0  0  0  0  0  0  0
    3.9929   -3.0702    1.4150 H   0  0  0  0  0  0  0  0  0  0  0  0
   -3.0276    5.9419    0.1769 C   0  0  0  0  0  0  0  0  0  0  0  0
   -3.7817    5.9494   -2.0274 N   0  0  0  0  0  0  0  0  0  0  0  0
   -2.3491   -6.2873    7.8325 H   0  0  0  0  0  0  0  0  0  0  0  0
    2.4711   -1.4989    0.7774 C   0  0  0  0  0  0  0  0  0  0  0  0
    0.6474   -2.7763    9.5918 H   0  0  0  0  0  0  0  0  0  0  0  0
   -3.9729    2.7927    0.8160 H   0  0  0  0  0  0  0  0  0  0  0  0
   -4.6936    2.9080   -3.3173 O   0  0  0  0  0  0  0  0  0  0  0  0
    4.6118   -1.9788   -5.8182 H   0  0  0  0  0  0  0  0  0  0  0  0
   -2.6261    3.7557   -1.0649 C   0  0  0  0  0  0  0  0  0  0  0  0
   -8.0938    6.4828   -4.9915 C   0  0  0  0  0  0  0  0  0  0  0  0
   -2.9831    4.5300    0.0699 C   0  0  0  0  0  0  0  0  0  0  0  0
    4.2665   -2.6637   -3.6862 C   0  0  0  0  0  0  0  0  0  0  0  0
   -0.4796    0.7381    0.3251 C   0  0  0  0  0  0  0  0  0  0  0  0
   -0.0152   -3.9089    4.8471 H   0  0  0  0  0  0  0  0  0  0  0  0
   -3.4447    6.7268    2.2739 H   0  0  0  0  0  0  0  0  0  0  0  0
   -2.2880   -6.0402   10.3850 H   0  0  0  0  0  0  0  0  0  0  0  0
   -1.0480   -4.6642    7.3697 N   0  0  0  0  0  0  0  0  0  0  0  0
    5.4595   -5.1638   -6.6247 C   0  0  0  0  0  0  0  0  0  0  0  0
   -5.8245    5.0112   -3.7448 C   0  0  0  0  0  0  0  0  0  0  0  0
    4.8007   -2.6847   -5.1651 N   0  0  0  0  0  0  0  0  0  0  0  0
    2.5113   -0.8204   -3.5437 C   0  0  0  0  0  0  0  0  0  0  0  0
   -8.0627    5.0810   -4.9399 C   0  0  0  0  0  0  0  0  0  0  0  0
   -1.6674   -5.3947    9.6853 C   0  0  0  0  0  0  0  0  0  0  0  0
   -7.0344    3.2836   -4.3869 H   0  0  0  0  0  0  0  0  0  0  0  0
    2.6490   -0.5873   -4.6548 H   0  0  0  0  0  0  0  0  0  0  0  0
    4.3701   -5.1008   -6.7865 H   0  0  0  0  0  0  0  0  0  0  0  0
    3.0760    0.6989    2.6786 H   0  0  0  0  0  0  0  0  0  0  0  0
   -0.1211   -3.6669    7.6899 C   0  0  0  0  0  0  0  0  0  0  0  0
    6.1266   -5.1992   -7.5831 H   0  0  0  0  0  0  0  0  0  0  0  0
   -7.0403    7.1019   -4.4532 N   0  0  0  0  0  0  0  0  0  0  0  0
   -2.1954    7.5741    1.4189 H   0  0  0  0  0  0  0  0  0  0  0  0
    3.0555    0.4564    5.1881 H   0  0  0  0  0  0  0  0  0  0  0  0
    6.8202   -6.0207   -2.9020 H   0  0  0  0  0  0  0  0  0  0  0  0
   -2.6240    6.5501    1.5414 C   0  0  0  0  0  0  0  0  0  0  0  0
    0.2297    0.7909   -0.9499 C   0  0  0  0  0  0  0  0  0  0  0  0
    1.3220   -2.1120    2.9543 N   0  0  0  0  0  0  0  0  0  0  0  0
    3.7990   -2.7898   -0.7503 C   0  0  0  0  0  0  0  0  0  0  0  0
    5.5437   -6.1737   -6.3583 H   0  0  0  0  0  0  0  0  0  0  0  0
    4.7245   -3.6914   -1.5317 C   0  0  0  0  0  0  0  0  0  0  0  0
   -8.9622    7.0869   -5.4979 H   0  0  0  0  0  0  0  0  0  0  0  0
   -8.9406    4.5282   -5.3932 H   0  0  0  0  0  0  0  0  0  0  0  0
    2.5553   -0.2853    4.5458 C   0  0  0  0  0  0  0  0  0  0  0  0
   -6.0032    6.5134   -3.8134 C   0  0  0  0  0  0  0  0  0  0  0  0
    1.8181   -1.3263    5.1665 C   0  0  0  0  0  0  0  0  0  0  0  0
  1 39  1  0
  1 43  2  0
  1 76  1  0
  2  3  4  0
  2 11  4  0
  2 67  1  0
  3 35  4  0
  3 53  1  0
  4 16  1  0
  5 34  1  0
  6 20  1  0
  7 38  1  0
  8 10  1  0
  8 28  4  0
  8 74  4  0
  9 21  4  0
  9 51  4  0
  9 60  4  0
 11 83  4  0
 12 42  1  0
 12 56  4  0
 12 62  4  0
 13 29  1  0
 14 82  1  0
 15 31  4  0
 15 66  1  0
 15 81  4  0
 16 17  2  0
 16 72  1  0
 17 26  1  0
 17 34  1  0
 18 25  1  0
 18 41  4  0
 18 48  4  0
 19 52  1  0
 20 23  4  0
 20 62  4  0
 21 37  4  0
 21 76  4  0
 22 78  1  0
 23 44  1  0
 23 67  4  0
 24 27  1  0
 24 40  4  0
 24 41  4  0
 25 46  2  0
 25 58  1  0
 26 51  4  0
 26 78  4  0
 28 33  4  0
 28 48  1  0
 29 45  1  0
 29 50  1  0
 30 58  4  0
 30 61  4  0
 30 63  1  0
 31 43  1  0
 31 75  4  0
 32 37  4  0
 32 38  4  0
 32 74  1  0
 33 52  4  0
 34 57  1  0
 34 59  1  0
 35 75  4  0
 35 83  4  0
 36 73  1  0
 37 43  1  0
 38 60  4  0
 40 50  4  0
 40 73  1  0
 47 59  1  0
 48 50  4  0
 49 61  4  0
 49 69  4  0
 49 79  1  0
 51 59  1  0
 52 74  4  0
 54 73  1  0
 55 62  1  0
 56 67  4  0
 57 65  1  0
 57 68  1  0
 57 77  1  0
 58 82  4  0
 60 64  1  0
 61 80  1  0
 69 82  4  0
 70 73  1  0
 71 81  1  0
 76 78  4  0
 81 83  4  0
M  END
>  <generation_index>  (1) 
45

>  <target_raw_property>  (1) 
0.5

>  <num_atoms>  (1) 
83

>  <sanitize_ok>  (1) 
True

>  <single_component>  (1) 
True

>  <canonical_smiles>  (1) 
[H]C([H])=C1c2c([H])c3c4c(c(-c5c([H])oc(-c6c(C(=O)c7c([H])nc([H])c([H])c7[H])nc([H])c(C([H])([H])[H])c6N([H])[H])c5[H])c([H])c([H])c4c2N([H])C1([H])C([H])([H])[H])C(c1nc2c(nc(-c4nc([H])c([H])c([H])c4[H])n2[H])c([H])c1[H])=C3[H]

>  <is_unique_generated>  (1) 
True

>  <dataset_membership_checked>  (1) 
True

>  <in_train_dataset>  (1) 
False

>  <in_val_dataset>  (1) 
False

>  <in_test_dataset>  (1) 
False

>  <in_any_dataset>  (1) 
False

>  <is_novel>  (1) 
True

$$$$
