 energy: -138.931898100963 gnorm: 0.002389258619 xtb: 6.7.1 (edcfbbe)
          08202606263D

 83 92  0     0  0            999 V2000
    3.1196   -2.7692    0.0691 C   0  0  0  0  0  0  0  0  0  0  0  0
   -0.4500   -1.6816    5.3363 C   0  0  0  0  0  0  0  0  0  0  0  0
   -0.0141   -2.5926    4.4097 N   0  0  0  0  0  0  0  0  0  0  0  0
    7.1376   -5.1663   -4.9078 H   0  0  0  0  0  0  0  0  0  0  0  0
    6.0546   -2.8556   -6.1517 H   0  0  0  0  0  0  0  0  0  0  0  0
   -2.3197   -0.9782    9.4952 H   0  0  0  0  0  0  0  0  0  0  0  0
    0.2765    0.5730   -3.4560 H   0  0  0  0  0  0  0  0  0  0  0  0
   -0.6592    1.5058   -0.9527 C   0  0  0  0  0  0  0  0  0  0  0  0
    2.8292   -1.6506   -3.3815 C   0  0  0  0  0  0  0  0  0  0  0  0
   -0.3094    2.2918   -1.5904 H   0  0  0  0  0  0  0  0  0  0  0  0
   -0.2142   -0.4398    4.9833 N   0  0  0  0  0  0  0  0  0  0  0  0
   -1.9093   -3.8499    7.7790 C   0  0  0  0  0  0  0  0  0  0  0  0
   -1.9892    2.6555    3.6573 H   0  0  0  0  0  0  0  0  0  0  0  0
   -2.5454    5.6921   -2.1944 H   0  0  0  0  0  0  0  0  0  0  0  0
    1.4676   -0.0146    1.7316 C   0  0  0  0  0  0  0  0  0  0  0  0
    6.5162   -4.8002   -4.1091 C   0  0  0  0  0  0  0  0  0  0  0  0
    5.5471   -3.9159   -4.3255 C   0  0  0  0  0  0  0  0  0  0  0  0
   -3.1445    3.5244   -0.5484 C   0  0  0  0  0  0  0  0  0  0  0  0
   -0.9405   -1.4557    0.4229 H   0  0  0  0  0  0  0  0  0  0  0  0
   -2.0435   -1.6582    8.7020 C   0  0  0  0  0  0  0  0  0  0  0  0
    2.7526   -1.9126   -2.0119 C   0  0  0  0  0  0  0  0  0  0  0  0
    5.1426   -4.2850   -1.5054 H   0  0  0  0  0  0  0  0  0  0  0  0
   -1.4369   -1.1883    7.5528 C   0  0  0  0  0  0  0  0  0  0  0  0
   -3.7264    5.0670    1.0190 C   0  0  0  0  0  0  0  0  0  0  0  0
   -3.3624    3.0383   -1.9380 C   0  0  0  0  0  0  0  0  0  0  0  0
    4.6370   -3.3185   -3.3618 C   0  0  0  0  0  0  0  0  0  0  0  0
   -4.2342    6.0035    1.2126 H   0  0  0  0  0  0  0  0  0  0  0  0
   -1.6514    1.6014   -0.0195 C   0  0  0  0  0  0  0  0  0  0  0  0
   -1.7815    2.4741    2.6913 N   0  0  0  0  0  0  0  0  0  0  0  0
   -4.6297    3.7012   -3.9591 C   0  0  0  0  0  0  0  0  0  0  0  0
    1.5280   -1.3964    1.4434 C   0  0  0  0  0  0  0  0  0  0  0  0
    0.9051   -0.4195   -1.6694 C   0  0  0  0  0  0  0  0  0  0  0  0
   -1.8066    0.4124    0.6135 O   0  0  0  0  0  0  0  0  0  0  0  0
    5.1859   -3.3361   -5.6818 C   0  0  0  0  0  0  0  0  0  0  0  0
    0.5419   -1.8819    3.3928 C   0  0  0  0  0  0  0  0  0  0  0  0
   -2.1078    5.0209    3.8271 H   0  0  0  0  0  0  0  0  0  0  0  0
    1.8361   -1.2931   -1.1314 C   0  0  0  0  0  0  0  0  0  0  0  0
    0.9957   -0.1239   -3.0498 C   0  0  0  0  0  0  0  0  0  0  0  0
    3.5437   -3.3313    0.8806 H   0  0  0  0  0  0  0  0  0  0  0  0
   -3.1124    4.3789    2.0520 C   0  0  0  0  0  0  0  0  0  0  0  0
   -3.7663    4.6578   -0.2344 N   0  0  0  0  0  0  0  0  0  0  0  0
   -2.0796   -4.9180    7.8239 H   0  0  0  0  0  0  0  0  0  0  0  0
    2.1255   -1.8389    0.1908 C   0  0  0  0  0  0  0  0  0  0  0  0
   -1.2153   -0.1451    7.3994 H   0  0  0  0  0  0  0  0  0  0  0  0
   -1.4907    1.5357    2.4726 H   0  0  0  0  0  0  0  0  0  0  0  0
   -3.2994    1.8630   -2.2394 O   0  0  0  0  0  0  0  0  0  0  0  0
    3.6304   -1.8973   -6.0675 H   0  0  0  0  0  0  0  0  0  0  0  0
   -2.4415    2.7590    0.3892 C   0  0  0  0  0  0  0  0  0  0  0  0
   -4.4583    5.9215   -4.7853 C   0  0  0  0  0  0  0  0  0  0  0  0
   -2.4553    3.1736    1.7386 C   0  0  0  0  0  0  0  0  0  0  0  0
    3.8297   -2.3956   -4.0544 C   0  0  0  0  0  0  0  0  0  0  0  0
   -0.9231   -0.4422    0.0756 C   0  0  0  0  0  0  0  0  0  0  0  0
   -0.1126   -3.5905    4.4935 H   0  0  0  0  0  0  0  0  0  0  0  0
   -3.6581    4.2242    4.1213 H   0  0  0  0  0  0  0  0  0  0  0  0
   -2.7643   -3.4247    9.7024 H   0  0  0  0  0  0  0  0  0  0  0  0
   -1.3256   -3.4176    6.6786 N   0  0  0  0  0  0  0  0  0  0  0  0
    4.6238   -4.3981   -6.6285 C   0  0  0  0  0  0  0  0  0  0  0  0
   -3.7555    4.0630   -2.9353 C   0  0  0  0  0  0  0  0  0  0  0  0
    4.1921   -2.3311   -5.3565 N   0  0  0  0  0  0  0  0  0  0  0  0
    1.9178   -0.7020   -3.8874 C   0  0  0  0  0  0  0  0  0  0  0  0
   -4.9931    4.6471   -4.9005 C   0  0  0  0  0  0  0  0  0  0  0  0
   -2.2905   -3.0187    8.8226 C   0  0  0  0  0  0  0  0  0  0  0  0
   -5.0150    2.6923   -3.9918 H   0  0  0  0  0  0  0  0  0  0  0  0
    1.9292   -0.4359   -4.9351 H   0  0  0  0  0  0  0  0  0  0  0  0
    3.7403   -4.8559   -6.1882 H   0  0  0  0  0  0  0  0  0  0  0  0
    1.8853    0.6758    1.0149 H   0  0  0  0  0  0  0  0  0  0  0  0
   -1.0938   -2.1086    6.5602 C   0  0  0  0  0  0  0  0  0  0  0  0
    4.3539   -3.9559   -7.5855 H   0  0  0  0  0  0  0  0  0  0  0  0
   -3.6006    6.2677   -3.8382 N   0  0  0  0  0  0  0  0  0  0  0  0
   -3.6194    5.8711    3.4886 H   0  0  0  0  0  0  0  0  0  0  0  0
    0.8845    1.4990    3.1494 H   0  0  0  0  0  0  0  0  0  0  0  0
    6.7214   -5.1811   -3.1252 H   0  0  0  0  0  0  0  0  0  0  0  0
   -3.1253    4.9037    3.4544 C   0  0  0  0  0  0  0  0  0  0  0  0
   -0.1704    0.1728   -0.8878 C   0  0  0  0  0  0  0  0  0  0  0  0
    1.0878   -2.3337    2.2776 N   0  0  0  0  0  0  0  0  0  0  0  0
    3.5534   -2.8391   -1.3025 C   0  0  0  0  0  0  0  0  0  0  0  0
    5.3669   -5.1716   -6.7982 H   0  0  0  0  0  0  0  0  0  0  0  0
    4.5108   -3.5571   -1.9913 C   0  0  0  0  0  0  0  0  0  0  0  0
   -4.7183    6.7057   -5.4846 H   0  0  0  0  0  0  0  0  0  0  0  0
   -5.6766    4.4047   -5.6999 H   0  0  0  0  0  0  0  0  0  0  0  0
    0.9167    0.4478    2.9050 C   0  0  0  0  0  0  0  0  0  0  0  0
   -3.2585    5.3671   -2.9385 C   0  0  0  0  0  0  0  0  0  0  0  0
    0.4087   -0.5189    3.7717 C   0  0  0  0  0  0  0  0  0  0  0  0
  1 39  1  0  0  0  0
  1 43  2  0  0  0  0
  1 76  1  0  0  0  0
  2  3  4  0  0  0  0
  2 11  4  0  0  0  0
  2 67  1  0  0  0  0
  3 35  4  0  0  0  0
  3 53  1  0  0  0  0
  4 16  1  0  0  0  0
  5 34  1  0  0  0  0
  6 20  1  0  0  0  0
  7 38  1  0  0  0  0
  8 10  1  0  0  0  0
  8 28  4  0  0  0  0
  8 74  4  0  0  0  0
  9 21  4  0  0  0  0
  9 51  4  0  0  0  0
  9 60  4  0  0  0  0
 11 83  4  0  0  0  0
 12 42  1  0  0  0  0
 12 56  4  0  0  0  0
 12 62  4  0  0  0  0
 13 29  1  0  0  0  0
 14 82  1  0  0  0  0
 15 31  4  0  0  0  0
 15 66  1  0  0  0  0
 15 81  4  0  0  0  0
 16 17  2  0  0  0  0
 16 72  1  0  0  0  0
 17 26  1  0  0  0  0
 17 34  1  0  0  0  0
 18 25  1  0  0  0  0
 18 41  4  0  0  0  0
 18 48  4  0  0  0  0
 19 52  1  0  0  0  0
 20 23  4  0  0  0  0
 20 62  4  0  0  0  0
 21 37  4  0  0  0  0
 21 76  4  0  0  0  0
 22 78  1  0  0  0  0
 23 44  1  0  0  0  0
 23 67  4  0  0  0  0
 24 27  1  0  0  0  0
 24 40  4  0  0  0  0
 24 41  4  0  0  0  0
 25 46  2  0  0  0  0
 25 58  1  0  0  0  0
 26 51  4  0  0  0  0
 26 78  4  0  0  0  0
 28 33  4  0  0  0  0
 28 48  1  0  0  0  0
 29 45  1  0  0  0  0
 29 50  1  0  0  0  0
 30 58  4  0  0  0  0
 30 61  4  0  0  0  0
 30 63  1  0  0  0  0
 31 43  1  0  0  0  0
 31 75  4  0  0  0  0
 32 37  4  0  0  0  0
 32 38  4  0  0  0  0
 32 74  1  0  0  0  0
 33 52  4  0  0  0  0
 34 57  1  0  0  0  0
 34 59  1  0  0  0  0
 35 75  4  0  0  0  0
 35 83  4  0  0  0  0
 36 73  1  0  0  0  0
 37 43  1  0  0  0  0
 38 60  4  0  0  0  0
 40 50  4  0  0  0  0
 40 73  1  0  0  0  0
 47 59  1  0  0  0  0
 48 50  4  0  0  0  0
 49 61  4  0  0  0  0
 49 69  4  0  0  0  0
 49 79  1  0  0  0  0
 51 59  1  0  0  0  0
 52 74  4  0  0  0  0
 54 73  1  0  0  0  0
 55 62  1  0  0  0  0
 56 67  4  0  0  0  0
 57 65  1  0  0  0  0
 57 68  1  0  0  0  0
 57 77  1  0  0  0  0
 58 82  4  0  0  0  0
 60 64  1  0  0  0  0
 61 80  1  0  0  0  0
 69 82  4  0  0  0  0
 70 73  1  0  0  0  0
 71 81  1  0  0  0  0
 76 78  4  0  0  0  0
 81 83  4  0  0  0  0
M  END
$$$$
