00019
     RDKit          3D

 59 68  0  0  0  0  0  0  0  0999 V2000
   -4.4197    3.8459   -2.7873 H   0  0  0  0  0  0  0  0  0  0  0  0
   -0.7684   -4.7328    2.2183 C   0  0  0  0  0  0  0  0  0  0  0  0
    4.7917   -1.7844   -1.1215 H   0  0  0  0  0  0  0  0  0  0  0  0
   -1.1393    5.8510    1.7445 H   0  0  0  0  0  0  0  0  0  0  0  0
    1.5018    2.0455    2.9205 C   0  0  0  0  0  0  0  0  0  0  0  0
    1.7084    4.0359    3.8011 H   0  0  0  0  0  0  0  0  0  0  0  0
    0.8946   -3.6871    0.2622 C   0  0  0  0  0  0  0  0  0  0  0  0
    0.1450   -6.7215   -1.9904 N   0  0  0  0  0  0  0  0  0  0  0  0
   -0.9748   -1.2236   -4.7764 N   0  0  0  0  0  0  0  0  0  0  0  0
    3.7440   -3.9150   -0.2195 H   0  0  0  0  0  0  0  0  0  0  0  0
    0.2208   -5.9351   -1.1323 C   0  0  0  0  0  0  0  0  0  0  0  0
    0.2652    3.8990    2.3499 N   0  0  0  0  0  0  0  0  0  0  0  0
    1.6545   -1.6746   -2.3434 C   0  0  0  0  0  0  0  0  0  0  0  0
   -0.6912   -2.8158    3.1468 H   0  0  0  0  0  0  0  0  0  0  0  0
    3.9284   -1.0135    4.2899 H   0  0  0  0  0  0  0  0  0  0  0  0
    0.2233   -4.9907    0.0503 C   0  0  0  0  0  0  0  0  0  0  0  0
    2.4237    0.0963    3.2281 C   0  0  0  0  0  0  0  0  0  0  0  0
   -2.6030   -0.0465   -4.5948 H   0  0  0  0  0  0  0  0  0  0  0  0
   -0.5832   -5.4668    1.0830 C   0  0  0  0  0  0  0  0  0  0  0  0
    2.5096    1.3800    3.6993 N   0  0  0  0  0  0  0  0  0  0  0  0
   -3.0378    3.9842   -1.1498 C   0  0  0  0  0  0  0  0  0  0  0  0
   -1.8836    1.5300   -2.2216 C   0  0  0  0  0  0  0  0  0  0  0  0
    1.4282   -0.1539    2.2396 C   0  0  0  0  0  0  0  0  0  0  0  0
    3.7647   -2.0184   -1.2608 C   0  0  0  0  0  0  0  0  0  0  0  0
   -3.0017    6.9643    0.5962 H   0  0  0  0  0  0  0  0  0  0  0  0
   -1.5744    1.9501   -0.8447 C   0  0  0  0  0  0  0  0  0  0  0  0
   -3.6057    3.3855   -2.2792 C   0  0  0  0  0  0  0  0  0  0  0  0
   -4.2425    5.8015   -1.2122 H   0  0  0  0  0  0  0  0  0  0  0  0
   -1.7092    5.2929    0.9813 C   0  0  0  0  0  0  0  0  0  0  0  0
    0.7150   -1.0172   -3.2206 C   0  0  0  0  0  0  0  0  0  0  0  0
    0.9718    0.8794   -2.3112 H   0  0  0  0  0  0  0  0  0  0  0  0
   -1.0877    0.5245   -3.0440 C   0  0  0  0  0  0  0  0  0  0  0  0
    3.1572   -3.1576   -0.7282 C   0  0  0  0  0  0  0  0  0  0  0  0
    1.1989    3.3846    3.0878 C   0  0  0  0  0  0  0  0  0  0  0  0
    0.1583   -1.6319   -4.2837 N   0  0  0  0  0  0  0  0  0  0  0  0
   -2.7446    5.9548    0.3260 C   0  0  0  0  0  0  0  0  0  0  0  0
    2.8830   -1.2434   -2.0652 N   0  0  0  0  0  0  0  0  0  0  0  0
   -0.7682    1.1735    0.1202 C   0  0  0  0  0  0  0  0  0  0  0  0
   -1.4012    3.9244    0.6379 C   0  0  0  0  0  0  0  0  0  0  0  0
    0.2857    0.2295   -2.8339 C   0  0  0  0  0  0  0  0  0  0  0  0
   -0.2861   -3.4112    2.3262 C   0  0  0  0  0  0  0  0  0  0  0  0
   -2.0228    3.2498   -0.4525 C   0  0  0  0  0  0  0  0  0  0  0  0
    1.1107   -2.7663   -1.8467 N   0  0  0  0  0  0  0  0  0  0  0  0
    3.1514   -3.0065    3.0159 H   0  0  0  0  0  0  0  0  0  0  0  0
    0.8565    1.1962    2.0063 C   0  0  0  0  0  0  0  0  0  0  0  0
    3.1494   -0.9919    3.5979 N   0  0  0  0  0  0  0  0  0  0  0  0
    1.7414   -3.2249   -0.7857 C   0  0  0  0  0  0  0  0  0  0  0  0
    1.5178   -1.6664    2.1154 C   0  0  0  0  0  0  0  0  0  0  0  0
   -3.3788    1.8816   -3.7672 H   0  0  0  0  0  0  0  0  0  0  0  0
   -0.1116    1.8375    1.1475 C   0  0  0  0  0  0  0  0  0  0  0  0
    2.6636   -2.0659    2.9121 C   0  0  0  0  0  0  0  0  0  0  0  0
   -2.9829    2.2106   -2.8135 C   0  0  0  0  0  0  0  0  0  0  0  0
   -3.4356    5.2951   -0.7128 C   0  0  0  0  0  0  0  0  0  0  0  0
    0.7231   -2.8751    1.4885 C   0  0  0  0  0  0  0  0  0  0  0  0
   -1.6498   -0.2066   -4.1646 C   0  0  0  0  0  0  0  0  0  0  0  0
   -0.4023    3.1992    1.3823 C   0  0  0  0  0  0  0  0  0  0  0  0
   -0.5786    0.0524    0.1026 H   0  0  0  0  0  0  0  0  0  0  0  0
   -1.0588   -6.4609    1.0405 H   0  0  0  0  0  0  0  0  0  0  0  0
   -1.3441   -5.1496    3.0454 H   0  0  0  0  0  0  0  0  0  0  0  0
  1 27  1  0
  2 19  4  0
  2 41  4  0
  2 59  1  0
  3 24  1  0
  4 29  1  0
  5 20  4  0
  5 34  4  0
  5 45  4  0
  6 34  1  0
  7 16  4  0
  7 47  4  0
  7 54  4  0
  8 11  3  0
  9 35  4  0
  9 55  4  0
 10 33  1  0
 11 16  1  0
 12 34  4  0
 12 56  4  0
 13 30  4  0
 13 37  4  0
 13 43  4  0
 14 41  1  0
 15 46  1  0
 16 19  4  0
 17 20  4  0
 17 23  4  0
 17 46  4  0
 18 55  1  0
 19 58  1  0
 21 27  4  0
 21 42  4  0
 21 53  4  0
 22 26  4  0
 22 32  4  0
 22 52  4  0
 23 45  4  0
 23 48  4  0
 24 33  4  0
 24 37  4  0
 25 36  1  0
 26 38  4  0
 26 42  4  0
 27 52  4  0
 28 53  1  0
 29 36  4  0
 29 39  4  0
 30 35  4  0
 30 40  4  0
 31 40  1  0
 32 40  4  0
 32 55  4  0
 33 47  4  0
 36 53  4  0
 38 50  4  0
 38 57  1  0
 39 42  4  0
 39 56  4  0
 41 54  4  0
 43 47  4  0
 44 51  1  0
 45 50  4  0
 46 51  4  0
 48 51  4  0
 48 54  4  0
 49 52  1  0
 50 56  4  0
M  END
>  <generation_index>  (1) 
19

>  <target_raw_property>  (1) 
0.5

>  <num_atoms>  (1) 
59

>  <sanitize_ok>  (1) 
True

>  <single_component>  (1) 
True

>  <canonical_smiles>  (1) 
[H]c1nc2nc(c1[H])c1c(C#N)c([H])c([H])c([H])c1c1c([H])n([H])c3nc4c([H])nc5c6c([H])c([H])c([H])c7c([H])c([H])c(c8c([H])nnc2c8[H])c(c([H])c5c4c13)c76

>  <is_unique_generated>  (1) 
True

>  <dataset_membership_checked>  (1) 
True

>  <in_train_dataset>  (1) 
False

>  <in_val_dataset>  (1) 
False

>  <in_test_dataset>  (1) 
False

>  <in_any_dataset>  (1) 
False

>  <is_novel>  (1) 
True

$$$$
