 energy: -106.410895493454 gnorm: 0.002270087068 xtb: 6.7.1 (edcfbbe)
          08252607103D

 59 68  0     0  0            999 V2000
   -3.9626    3.8892   -3.0468 H   0  0  0  0  0  0  0  0  0  0  0  0
   -1.3541   -3.7252    2.0870 C   0  0  0  0  0  0  0  0  0  0  0  0
    4.5891   -3.6496   -2.4516 H   0  0  0  0  0  0  0  0  0  0  0  0
   -2.1397    5.0618    2.4223 H   0  0  0  0  0  0  0  0  0  0  0  0
    1.5562    2.0336    2.9257 C   0  0  0  0  0  0  0  0  0  0  0  0
    1.4967    3.9445    3.8998 H   0  0  0  0  0  0  0  0  0  0  0  0
    0.9505   -3.4375    0.5532 C   0  0  0  0  0  0  0  0  0  0  0  0
    0.7327   -6.3385   -1.3438 N   0  0  0  0  0  0  0  0  0  0  0  0
   -0.5132   -0.8990   -4.7400 N   0  0  0  0  0  0  0  0  0  0  0  0
    3.4698   -4.5707   -0.3867 H   0  0  0  0  0  0  0  0  0  0  0  0
    0.4538   -5.5368   -0.5730 C   0  0  0  0  0  0  0  0  0  0  0  0
   -0.0910    3.7101    2.6134 N   0  0  0  0  0  0  0  0  0  0  0  0
    1.9976   -1.7592   -2.3761 C   0  0  0  0  0  0  0  0  0  0  0  0
   -0.7678   -1.8825    3.0126 H   0  0  0  0  0  0  0  0  0  0  0  0
    4.3649   -0.8868    3.5645 H   0  0  0  0  0  0  0  0  0  0  0  0
    0.1307   -4.5613    0.3983 C   0  0  0  0  0  0  0  0  0  0  0  0
    2.6943    0.2613    2.9667 C   0  0  0  0  0  0  0  0  0  0  0  0
   -2.2420    0.0977   -4.4359 H   0  0  0  0  0  0  0  0  0  0  0  0
   -1.0123   -4.7134    1.1830 C   0  0  0  0  0  0  0  0  0  0  0  0
    2.7276    1.4910    3.4122 N   0  0  0  0  0  0  0  0  0  0  0  0
   -3.0514    3.7594   -1.1000 C   0  0  0  0  0  0  0  0  0  0  0  0
   -1.5842    1.6024   -2.2028 C   0  0  0  0  0  0  0  0  0  0  0  0
    1.5158   -0.0943    2.1886 C   0  0  0  0  0  0  0  0  0  0  0  0
    3.6550   -3.2426   -2.0846 C   0  0  0  0  0  0  0  0  0  0  0  0
   -3.9585    6.1540    1.1310 H   0  0  0  0  0  0  0  0  0  0  0  0
   -1.4437    1.8990   -0.8274 C   0  0  0  0  0  0  0  0  0  0  0  0
   -3.2508    3.3538   -2.4360 C   0  0  0  0  0  0  0  0  0  0  0  0
   -4.4792    5.3608   -1.1481 H   0  0  0  0  0  0  0  0  0  0  0  0
   -2.4289    4.6883    1.4528 C   0  0  0  0  0  0  0  0  0  0  0  0
    1.0787   -0.8875   -3.1285 C   0  0  0  0  0  0  0  0  0  0  0  0
    1.0054    0.6899   -1.6655 H   0  0  0  0  0  0  0  0  0  0  0  0
   -0.7833    0.5915   -2.8837 C   0  0  0  0  0  0  0  0  0  0  0  0
    3.0588   -3.7358   -0.9301 C   0  0  0  0  0  0  0  0  0  0  0  0
    1.0300    3.2671    3.1986 C   0  0  0  0  0  0  0  0  0  0  0  0
    0.6111   -1.3440   -4.2797 N   0  0  0  0  0  0  0  0  0  0  0  0
   -3.4329    5.3072    0.7158 C   0  0  0  0  0  0  0  0  0  0  0  0
    3.1158   -2.2904   -2.8310 N   0  0  0  0  0  0  0  0  0  0  0  0
   -0.6725    1.1306    0.0873 C   0  0  0  0  0  0  0  0  0  0  0  0
   -1.7652    3.5745    0.9549 C   0  0  0  0  0  0  0  0  0  0  0  0
    0.4824    0.1954   -2.4683 C   0  0  0  0  0  0  0  0  0  0  0  0
   -0.5232   -2.6341    2.2766 C   0  0  0  0  0  0  0  0  0  0  0  0
   -2.0995    3.0624   -0.3187 C   0  0  0  0  0  0  0  0  0  0  0  0
    1.4138   -2.0685   -1.2245 N   0  0  0  0  0  0  0  0  0  0  0  0
    3.2913   -2.8537    2.4324 H   0  0  0  0  0  0  0  0  0  0  0  0
    0.8131    1.1017    2.0757 C   0  0  0  0  0  0  0  0  0  0  0  0
    3.5029   -0.8242    3.0518 N   0  0  0  0  0  0  0  0  0  0  0  0
    1.8977   -3.0872   -0.5246 C   0  0  0  0  0  0  0  0  0  0  0  0
    1.6367   -1.4887    1.9247 C   0  0  0  0  0  0  0  0  0  0  0  0
   -2.5898    2.1326   -4.0261 H   0  0  0  0  0  0  0  0  0  0  0  0
   -0.2297    1.6606    1.2851 C   0  0  0  0  0  0  0  0  0  0  0  0
    2.8562   -1.8714    2.4368 C   0  0  0  0  0  0  0  0  0  0  0  0
   -2.4982    2.3475   -2.9727 C   0  0  0  0  0  0  0  0  0  0  0  0
   -3.7305    4.8622   -0.5498 C   0  0  0  0  0  0  0  0  0  0  0  0
    0.6461   -2.4924    1.5339 C   0  0  0  0  0  0  0  0  0  0  0  0
   -1.2480   -0.0642   -4.0459 C   0  0  0  0  0  0  0  0  0  0  0  0
   -0.6607    2.9867    1.6768 C   0  0  0  0  0  0  0  0  0  0  0  0
   -0.3678    0.1277   -0.1768 H   0  0  0  0  0  0  0  0  0  0  0  0
   -1.6319   -5.5881    1.0526 H   0  0  0  0  0  0  0  0  0  0  0  0
   -2.2617   -3.8166    2.6642 H   0  0  0  0  0  0  0  0  0  0  0  0
  1 27  1  0  0  0  0
  2 19  4  0  0  0  0
  2 41  4  0  0  0  0
  2 59  1  0  0  0  0
  3 24  1  0  0  0  0
  4 29  1  0  0  0  0
  5 20  4  0  0  0  0
  5 34  4  0  0  0  0
  5 45  4  0  0  0  0
  6 34  1  0  0  0  0
  7 16  4  0  0  0  0
  7 47  4  0  0  0  0
  7 54  4  0  0  0  0
  8 11  3  0  0  0  0
  9 35  4  0  0  0  0
  9 55  4  0  0  0  0
 10 33  1  0  0  0  0
 11 16  1  0  0  0  0
 12 34  4  0  0  0  0
 12 56  4  0  0  0  0
 13 30  4  0  0  0  0
 13 37  4  0  0  0  0
 13 43  4  0  0  0  0
 14 41  1  0  0  0  0
 15 46  1  0  0  0  0
 16 19  4  0  0  0  0
 17 20  4  0  0  0  0
 17 23  4  0  0  0  0
 17 46  4  0  0  0  0
 18 55  1  0  0  0  0
 19 58  1  0  0  0  0
 21 27  4  0  0  0  0
 21 42  4  0  0  0  0
 21 53  4  0  0  0  0
 22 26  4  0  0  0  0
 22 32  4  0  0  0  0
 22 52  4  0  0  0  0
 23 45  4  0  0  0  0
 23 48  4  0  0  0  0
 24 33  4  0  0  0  0
 24 37  4  0  0  0  0
 25 36  1  0  0  0  0
 26 38  4  0  0  0  0
 26 42  4  0  0  0  0
 27 52  4  0  0  0  0
 28 53  1  0  0  0  0
 29 36  4  0  0  0  0
 29 39  4  0  0  0  0
 30 35  4  0  0  0  0
 30 40  4  0  0  0  0
 31 40  1  0  0  0  0
 32 40  4  0  0  0  0
 32 55  4  0  0  0  0
 33 47  4  0  0  0  0
 36 53  4  0  0  0  0
 38 50  4  0  0  0  0
 38 57  1  0  0  0  0
 39 42  4  0  0  0  0
 39 56  4  0  0  0  0
 41 54  4  0  0  0  0
 43 47  4  0  0  0  0
 44 51  1  0  0  0  0
 45 50  4  0  0  0  0
 46 51  4  0  0  0  0
 48 51  4  0  0  0  0
 48 54  4  0  0  0  0
 49 52  1  0  0  0  0
 50 56  4  0  0  0  0
M  END
$$$$
