00076
     RDKit          3D

 61 67  0  0  0  0  0  0  0  0999 V2000
   -0.4668   -5.5021   -0.5513 H   0  0  0  0  0  0  0  0  0  0  0  0
    3.4392    2.2273    1.1948 H   0  0  0  0  0  0  0  0  0  0  0  0
   -1.8293   -2.3656    0.5075 C   0  0  0  0  0  0  0  0  0  0  0  0
    3.3960   -1.5461   -0.8646 C   0  0  0  0  0  0  0  0  0  0  0  0
    3.7540   -2.1443   -1.6859 H   0  0  0  0  0  0  0  0  0  0  0  0
   -1.0899    5.4999   -2.0888 C   0  0  0  0  0  0  0  0  0  0  0  0
   -0.7407   -1.8002    0.0053 N   0  0  0  0  0  0  0  0  0  0  0  0
    1.6655    7.0451    1.0552 H   0  0  0  0  0  0  0  0  0  0  0  0
   -4.8685   -3.8470    2.6702 H   0  0  0  0  0  0  0  0  0  0  0  0
   -1.5411    0.0036    1.5326 S   0  0  0  0  0  0  0  0  0  0  0  0
    4.2131   -2.0293    2.6552 N   0  0  0  0  0  0  0  0  0  0  0  0
   -0.5489    7.9809   -0.9860 C   0  0  0  0  0  0  0  0  0  0  0  0
   -2.9601   -3.8731   -2.2056 N   0  0  0  0  0  0  0  0  0  0  0  0
    1.7766    0.6163   -0.4184 C   0  0  0  0  0  0  0  0  0  0  0  0
    2.0383   -0.7473    3.7300 C   0  0  0  0  0  0  0  0  0  0  0  0
   -1.2322    4.5290   -2.5873 H   0  0  0  0  0  0  0  0  0  0  0  0
   -1.4337    7.8810   -2.0753 C   0  0  0  0  0  0  0  0  0  0  0  0
    1.2050    6.3569    0.4922 N   0  0  0  0  0  0  0  0  0  0  0  0
    5.0410   -2.2270    4.6197 H   0  0  0  0  0  0  0  0  0  0  0  0
    3.1837   -1.5261    1.8378 C   0  0  0  0  0  0  0  0  0  0  0  0
    3.9721   -2.9674    0.4695 H   0  0  0  0  0  0  0  0  0  0  0  0
   -2.7199   -4.3263   -3.4317 C   0  0  0  0  0  0  0  0  0  0  0  0
   -1.3818   -5.5969   -5.2193 C   0  0  0  0  0  0  0  0  0  0  0  0
   -1.6262   -5.1607   -3.7412 C   0  0  0  0  0  0  0  0  0  0  0  0
   -3.4059   -3.9582   -4.2198 H   0  0  0  0  0  0  0  0  0  0  0  0
    2.9374    0.0600   -1.4373 S   0  0  0  0  0  0  0  0  0  0  0  0
   -2.4380   -1.5994    1.5629 C   0  0  0  0  0  0  0  0  0  0  0  0
    4.1712   -1.8683    3.9905 C   0  0  0  0  0  0  0  0  0  0  0  0
   -4.0019   -3.4295    2.0144 C   0  0  0  0  0  0  0  0  0  0  0  0
    3.4120   -1.9507    0.4097 C   0  0  0  0  0  0  0  0  0  0  0  0
   -1.0819   -5.1246   -1.3839 C   0  0  0  0  0  0  0  0  0  0  0  0
   -3.9425   -1.5714    3.1148 H   0  0  0  0  0  0  0  0  0  0  0  0
   -3.5012   -4.1992    0.9634 C   0  0  0  0  0  0  0  0  0  0  0  0
   -2.1360   -4.2191   -1.1567 C   0  0  0  0  0  0  0  0  0  0  0  0
    2.5511    2.7703    0.7976 C   0  0  0  0  0  0  0  0  0  0  0  0
   -0.2590    8.9649   -0.5309 H   0  0  0  0  0  0  0  0  0  0  0  0
   -2.4805   -3.6088    0.1504 C   0  0  0  0  0  0  0  0  0  0  0  0
   -2.3478    6.5714   -3.5148 H   0  0  0  0  0  0  0  0  0  0  0  0
    2.4545    4.1583    1.0511 C   0  0  0  0  0  0  0  0  0  0  0  0
    1.6224    2.1033   -0.0274 C   0  0  0  0  0  0  0  0  0  0  0  0
   -4.1156   -5.6056    0.7817 C   0  0  0  0  0  0  0  0  0  0  0  0
   -1.9404    8.8255   -2.5283 H   0  0  0  0  0  0  0  0  0  0  0  0
    2.1644   -0.7556    2.4323 N   0  0  0  0  0  0  0  0  0  0  0  0
   -0.8063   -5.5683   -2.6763 C   0  0  0  0  0  0  0  0  0  0  0  0
   -0.2399    5.5296   -0.9851 C   0  0  0  0  0  0  0  0  0  0  0  0
   -4.5898   -6.6174    0.7165 N   0  0  0  0  0  0  0  0  0  0  0  0
    0.0423   -6.2747   -2.8348 H   0  0  0  0  0  0  0  0  0  0  0  0
    2.9641   -1.2148    5.6971 H   0  0  0  0  0  0  0  0  0  0  0  0
    1.1519   -0.3485    4.2036 H   0  0  0  0  0  0  0  0  0  0  0  0
    3.1957    4.6528    1.7042 H   0  0  0  0  0  0  0  0  0  0  0  0
   -3.5113   -2.1703    2.2926 C   0  0  0  0  0  0  0  0  0  0  0  0
    0.8618   -0.2309   -0.0900 O   0  0  0  0  0  0  0  0  0  0  0  0
    0.5147    4.3633   -0.3453 C   0  0  0  0  0  0  0  0  0  0  0  0
   -1.2085   -5.8434   -6.3014 N   0  0  0  0  0  0  0  0  0  0  0  0
    0.4941    2.8831   -0.4382 C   0  0  0  0  0  0  0  0  0  0  0  0
   -1.6900    6.6173   -2.6260 C   0  0  0  0  0  0  0  0  0  0  0  0
    0.1344    6.6937   -0.4299 C   0  0  0  0  0  0  0  0  0  0  0  0
   -0.3770    2.4162   -0.7936 H   0  0  0  0  0  0  0  0  0  0  0  0
    3.0739   -1.2894    4.6140 C   0  0  0  0  0  0  0  0  0  0  0  0
    1.4408    4.9462    0.4811 C   0  0  0  0  0  0  0  0  0  0  0  0
   -0.3589   -0.5884    0.4273 C   0  0  0  0  0  0  0  0  0  0  0  0
  1 31  1  0
  2 35  1  0
  3  7  4  0
  3 27  4  0
  3 37  4  0
  4  5  1  0
  4 26  1  0
  4 30  2  3
  6 16  1  0
  6 45  4  0
  6 56  4  0
  7 61  4  0
  8 18  1  0
  9 29  1  0
 10 27  4  0
 10 61  4  0
 11 20  4  0
 11 28  4  0
 12 17  4  0
 12 36  1  0
 12 57  4  0
 13 22  4  0
 13 34  4  0
 14 26  2  3
 14 40  1  0
 14 52  1  0
 15 43  4  0
 15 49  1  0
 15 59  4  0
 17 42  1  0
 17 56  4  0
 18 57  4  0
 18 60  4  0
 19 28  1  0
 20 30  1  0
 20 43  4  0
 21 30  1  0
 22 24  4  0
 22 25  1  0
 23 24  1  0
 23 54  3  0
 24 44  4  0
 27 51  4  0
 28 59  4  0
 29 33  4  0
 29 51  4  0
 31 34  4  0
 31 44  4  0
 32 51  1  0
 33 37  4  0
 33 41  1  0
 34 37  1  0
 35 39  4  0
 35 40  4  0
 38 56  1  0
 39 50  1  0
 39 60  4  0
 40 55  4  0
 41 46  3  0
 44 47  1  0
 45 53  4  0
 45 57  4  0
 48 59  1  0
 52 61  1  0
 53 55  4  0
 53 60  4  0
 55 58  1  0
M  END
>  <generation_index>  (1) 
76

>  <target_raw_property>  (1) 
0.5

>  <num_atoms>  (1) 
61

>  <sanitize_ok>  (1) 
True

>  <single_component>  (1) 
True

>  <canonical_smiles>  (1) 
[H]C([SH]=C(Oc1nc2c(-c3nc([H])c(C#N)c([H])c3[H])c(C#N)c([H])c([H])c2s1)c1c([H])c([H])c2c(c1[H])c1c([H])c([H])c([H])c([H])c1n2[H])=C([H])c1nc([H])c([H])c([H])n1

>  <is_unique_generated>  (1) 
True

>  <dataset_membership_checked>  (1) 
True

>  <in_train_dataset>  (1) 
False

>  <in_val_dataset>  (1) 
False

>  <in_test_dataset>  (1) 
False

>  <in_any_dataset>  (1) 
False

>  <is_novel>  (1) 
True

$$$$
