 energy: -110.804313652920 gnorm: 0.001983509256 xtb: 6.7.1 (edcfbbe)
          08202606263D

 61 67  0     0  0            999 V2000
    0.0818   -3.7553   -1.4644 H   0  0  0  0  0  0  0  0  0  0  0  0
    3.9854    2.4031    1.3421 H   0  0  0  0  0  0  0  0  0  0  0  0
   -1.3554   -1.9893    0.1142 C   0  0  0  0  0  0  0  0  0  0  0  0
    4.1687   -1.4457   -0.6169 C   0  0  0  0  0  0  0  0  0  0  0  0
    4.7068   -1.9194   -1.4176 H   0  0  0  0  0  0  0  0  0  0  0  0
   -1.5266    4.3283   -1.3380 C   0  0  0  0  0  0  0  0  0  0  0  0
   -0.1736   -1.7298   -0.5166 N   0  0  0  0  0  0  0  0  0  0  0  0
    1.5744    6.7233    0.8516 H   0  0  0  0  0  0  0  0  0  0  0  0
   -4.6058   -2.3598    2.1688 H   0  0  0  0  0  0  0  0  0  0  0  0
   -0.3710    0.0438    1.3772 S   0  0  0  0  0  0  0  0  0  0  0  0
    2.7287   -2.2995    2.5880 N   0  0  0  0  0  0  0  0  0  0  0  0
   -0.9434    6.9555   -0.4653 C   0  0  0  0  0  0  0  0  0  0  0  0
   -3.1799   -4.4381   -1.8482 N   0  0  0  0  0  0  0  0  0  0  0  0
    2.4924    0.4721    0.2728 C   0  0  0  0  0  0  0  0  0  0  0  0
    2.3300    0.4085    2.7432 C   0  0  0  0  0  0  0  0  0  0  0  0
   -1.7531    3.3275   -1.6731 H   0  0  0  0  0  0  0  0  0  0  0  0
   -2.1029    6.6681   -1.1598 C   0  0  0  0  0  0  0  0  0  0  0  0
    1.1326    5.9116    0.4549 N   0  0  0  0  0  0  0  0  0  0  0  0
    2.0671   -2.4467    4.5097 H   0  0  0  0  0  0  0  0  0  0  0  0
    3.0106   -1.5528    1.5412 C   0  0  0  0  0  0  0  0  0  0  0  0
    3.7636   -3.2051    0.4752 H   0  0  0  0  0  0  0  0  0  0  0  0
   -3.1136   -5.2808   -2.8488 C   0  0  0  0  0  0  0  0  0  0  0  0
   -1.8783   -6.5602   -4.5223 C   0  0  0  0  0  0  0  0  0  0  0  0
   -1.9008   -5.6525   -3.4426 C   0  0  0  0  0  0  0  0  0  0  0  0
   -4.0561   -5.6784   -3.2000 H   0  0  0  0  0  0  0  0  0  0  0  0
    4.0730    0.2784   -0.7460 S   0  0  0  0  0  0  0  0  0  0  0  0
   -1.6453   -1.1214    1.1903 C   0  0  0  0  0  0  0  0  0  0  0  0
    2.2917   -1.7685    3.7018 C   0  0  0  0  0  0  0  0  0  0  0  0
   -3.6938   -2.2361    1.6050 C   0  0  0  0  0  0  0  0  0  0  0  0
    3.6563   -2.1329    0.4336 C   0  0  0  0  0  0  0  0  0  0  0  0
   -0.8017   -4.2084   -1.8814 C   0  0  0  0  0  0  0  0  0  0  0  0
   -3.0010   -0.5602    2.7545 H   0  0  0  0  0  0  0  0  0  0  0  0
   -3.4353   -3.1014    0.5356 C   0  0  0  0  0  0  0  0  0  0  0  0
   -2.0616   -3.9027   -1.3581 C   0  0  0  0  0  0  0  0  0  0  0  0
    3.0687    2.8066    0.9384 C   0  0  0  0  0  0  0  0  0  0  0  0
   -0.7247    7.9586   -0.1311 H   0  0  0  0  0  0  0  0  0  0  0  0
   -2.2651   -2.9952   -0.2310 C   0  0  0  0  0  0  0  0  0  0  0  0
   -3.3058    5.1925   -2.1345 H   0  0  0  0  0  0  0  0  0  0  0  0
    2.8185    4.1591    1.0288 C   0  0  0  0  0  0  0  0  0  0  0  0
    2.1620    1.9341    0.3179 C   0  0  0  0  0  0  0  0  0  0  0  0
   -4.3922   -4.1205    0.2958 C   0  0  0  0  0  0  0  0  0  0  0  0
   -2.8033    7.4619   -1.3721 H   0  0  0  0  0  0  0  0  0  0  0  0
    2.6990   -0.1537    1.5347 N   0  0  0  0  0  0  0  0  0  0  0  0
   -0.7232   -5.0942   -2.9365 C   0  0  0  0  0  0  0  0  0  0  0  0
   -0.3550    4.5919   -0.6390 C   0  0  0  0  0  0  0  0  0  0  0  0
   -5.2237   -4.9111    0.2702 N   0  0  0  0  0  0  0  0  0  0  0  0
    0.2304   -5.3602   -3.3694 H   0  0  0  0  0  0  0  0  0  0  0  0
    1.8785    0.0836    4.7823 H   0  0  0  0  0  0  0  0  0  0  0  0
    2.1750    1.4756    2.7408 H   0  0  0  0  0  0  0  0  0  0  0  0
    3.5233    4.8195    1.5100 H   0  0  0  0  0  0  0  0  0  0  0  0
   -2.8038   -1.2365    1.9384 C   0  0  0  0  0  0  0  0  0  0  0  0
    1.5764   -0.2915   -0.5171 O   0  0  0  0  0  0  0  0  0  0  0  0
    0.7386    3.7776   -0.1903 C   0  0  0  0  0  0  0  0  0  0  0  0
   -1.8644   -7.2977   -5.4002 N   0  0  0  0  0  0  0  0  0  0  0  0
    1.0132    2.4228   -0.2834 C   0  0  0  0  0  0  0  0  0  0  0  0
   -2.3902    5.3745   -1.5923 C   0  0  0  0  0  0  0  0  0  0  0  0
   -0.0706    5.9091   -0.2104 C   0  0  0  0  0  0  0  0  0  0  0  0
    0.3409    1.7751   -0.8230 H   0  0  0  0  0  0  0  0  0  0  0  0
    2.1492   -0.3604    3.8398 C   0  0  0  0  0  0  0  0  0  0  0  0
    1.6373    4.6416    0.4811 C   0  0  0  0  0  0  0  0  0  0  0  0
    0.4465   -0.7380   -0.0082 C   0  0  0  0  0  0  0  0  0  0  0  0
  1 31  1  0  0  0  0
  2 35  1  0  0  0  0
  3  7  4  0  0  0  0
  3 27  4  0  0  0  0
  3 37  4  0  0  0  0
  4  5  1  0  0  0  0
  4 26  1  0  0  0  0
  4 30  2  0  0  0  0
  6 16  1  0  0  0  0
  6 45  4  0  0  0  0
  6 56  4  0  0  0  0
  7 61  4  0  0  0  0
  8 18  1  0  0  0  0
  9 29  1  0  0  0  0
 10 27  4  0  0  0  0
 10 61  4  0  0  0  0
 11 20  4  0  0  0  0
 11 28  4  0  0  0  0
 12 17  4  0  0  0  0
 12 36  1  0  0  0  0
 12 57  4  0  0  0  0
 13 22  4  0  0  0  0
 13 34  4  0  0  0  0
 14 26  2  0  0  0  0
 14 40  1  0  0  0  0
 14 52  1  0  0  0  0
 15 43  4  0  0  0  0
 15 49  1  0  0  0  0
 15 59  4  0  0  0  0
 17 42  1  0  0  0  0
 17 56  4  0  0  0  0
 18 57  4  0  0  0  0
 18 60  4  0  0  0  0
 19 28  1  0  0  0  0
 20 30  1  0  0  0  0
 20 43  4  0  0  0  0
 21 30  1  0  0  0  0
 22 24  4  0  0  0  0
 22 25  1  0  0  0  0
 23 24  1  0  0  0  0
 23 54  3  0  0  0  0
 24 44  4  0  0  0  0
 27 51  4  0  0  0  0
 28 59  4  0  0  0  0
 29 33  4  0  0  0  0
 29 51  4  0  0  0  0
 31 34  4  0  0  0  0
 31 44  4  0  0  0  0
 32 51  1  0  0  0  0
 33 37  4  0  0  0  0
 33 41  1  0  0  0  0
 34 37  1  0  0  0  0
 35 39  4  0  0  0  0
 35 40  4  0  0  0  0
 38 56  1  0  0  0  0
 39 50  1  0  0  0  0
 39 60  4  0  0  0  0
 40 55  4  0  0  0  0
 41 46  3  0  0  0  0
 44 47  1  0  0  0  0
 45 53  4  0  0  0  0
 45 57  4  0  0  0  0
 48 59  1  0  0  0  0
 52 61  1  0  0  0  0
 53 55  4  0  0  0  0
 53 60  4  0  0  0  0
 55 58  1  0  0  0  0
M  END
$$$$
