 energy: -107.167588386808 gnorm: 0.001265390035 xtb: 6.7.1 (edcfbbe)
          08252607103D

 62 70  0     0  0            999 V2000
    4.1362    6.2386    4.7396 H   0  0  0  0  0  0  0  0  0  0  0  0
    0.2279    0.0853   -0.8905 C   0  0  0  0  0  0  0  0  0  0  0  0
   -2.5725    4.9029    0.6127 H   0  0  0  0  0  0  0  0  0  0  0  0
   -1.2113   -3.9231   -3.5073 N   0  0  0  0  0  0  0  0  0  0  0  0
   -3.2498   -4.4887   -5.0058 H   0  0  0  0  0  0  0  0  0  0  0  0
    1.3247    2.7009    3.5549 C   0  0  0  0  0  0  0  0  0  0  0  0
   -3.0573   -6.6255   -5.0680 C   0  0  0  0  0  0  0  0  0  0  0  0
    0.5882   -3.2571   -0.2567 H   0  0  0  0  0  0  0  0  0  0  0  0
   -0.6062   -0.0242   -6.0558 H   0  0  0  0  0  0  0  0  0  0  0  0
    1.1253   -1.8436    1.7439 H   0  0  0  0  0  0  0  0  0  0  0  0
   -0.4102    5.0878    4.4753 C   0  0  0  0  0  0  0  0  0  0  0  0
    0.0959    1.2498   -0.2784 N   0  0  0  0  0  0  0  0  0  0  0  0
    2.6164    4.9067    3.8427 C   0  0  0  0  0  0  0  0  0  0  0  0
   -1.5353    6.8325    5.2012 H   0  0  0  0  0  0  0  0  0  0  0  0
   -0.2938   -1.2568   -4.3285 C   0  0  0  0  0  0  0  0  0  0  0  0
    3.1633    2.2985    5.7891 H   0  0  0  0  0  0  0  0  0  0  0  0
   -1.3557    6.1208    4.4146 C   0  0  0  0  0  0  0  0  0  0  0  0
    3.9060    4.2743    5.5262 N   0  0  0  0  0  0  0  0  0  0  0  0
    3.6141    5.3045    4.6796 C   0  0  0  0  0  0  0  0  0  0  0  0
   -2.0137    6.0824    3.1994 C   0  0  0  0  0  0  0  0  0  0  0  0
    0.2195    4.8718    5.3187 H   0  0  0  0  0  0  0  0  0  0  0  0
   -0.4240   -8.7104   -3.4856 C   0  0  0  0  0  0  0  0  0  0  0  0
    0.1574   -9.6439   -3.1637 N   0  0  0  0  0  0  0  0  0  0  0  0
   -1.1743    3.2943    0.8176 C   0  0  0  0  0  0  0  0  0  0  0  0
   -2.3117   -7.7388   -4.6591 C   0  0  0  0  0  0  0  0  0  0  0  0
   -0.2272    2.6223    1.5939 C   0  0  0  0  0  0  0  0  0  0  0  0
   -1.8156    4.4513    1.2388 C   0  0  0  0  0  0  0  0  0  0  0  0
    0.7545    0.2653    1.7985 C   0  0  0  0  0  0  0  0  0  0  0  0
   -0.1598    1.1569   -3.0951 C   0  0  0  0  0  0  0  0  0  0  0  0
    0.2048    3.2194    2.8264 C   0  0  0  0  0  0  0  0  0  0  0  0
   -0.1021    2.1299   -2.6271 H   0  0  0  0  0  0  0  0  0  0  0  0
   -0.3703    1.1315   -4.3873 N   0  0  0  0  0  0  0  0  0  0  0  0
    1.1041    0.3589    3.1785 C   0  0  0  0  0  0  0  0  0  0  0  0
   -1.4286    2.8652   -0.1383 H   0  0  0  0  0  0  0  0  0  0  0  0
    1.4706    1.4163    3.8078 N   0  0  0  0  0  0  0  0  0  0  0  0
    1.5768   -4.7721   -1.8524 H   0  0  0  0  0  0  0  0  0  0  0  0
    0.4436   -2.3620   -0.8470 C   0  0  0  0  0  0  0  0  0  0  0  0
    2.1633    5.4828    3.0625 H   0  0  0  0  0  0  0  0  0  0  0  0
    1.1744   -0.5663    3.7416 H   0  0  0  0  0  0  0  0  0  0  0  0
    0.3638   -6.1065   -2.7817 N   0  0  0  0  0  0  0  0  0  0  0  0
    0.8276   -0.9760    1.1698 C   0  0  0  0  0  0  0  0  0  0  0  0
    0.5196   -1.1124   -0.1805 C   0  0  0  0  0  0  0  0  0  0  0  0
   -0.0722   -1.2524   -2.9439 C   0  0  0  0  0  0  0  0  0  0  0  0
    2.2807    3.5698    4.1949 C   0  0  0  0  0  0  0  0  0  0  0  0
    0.1040   -2.4521   -2.1654 C   0  0  0  0  0  0  0  0  0  0  0  0
    0.6578   -4.8959   -2.4095 C   0  0  0  0  0  0  0  0  0  0  0  0
   -0.3568   -2.1884   -4.8669 H   0  0  0  0  0  0  0  0  0  0  0  0
   -0.7580   -6.2823   -3.5101 C   0  0  0  0  0  0  0  0  0  0  0  0
   -1.5048    4.9844    2.4691 C   0  0  0  0  0  0  0  0  0  0  0  0
    3.1199    3.2160    5.2382 C   0  0  0  0  0  0  0  0  0  0  0  0
    4.5970    4.3032    6.2578 H   0  0  0  0  0  0  0  0  0  0  0  0
   -1.5361   -5.1641   -3.9143 C   0  0  0  0  0  0  0  0  0  0  0  0
   -1.1732   -7.5831   -3.8946 C   0  0  0  0  0  0  0  0  0  0  0  0
    0.0060    0.0063   -2.3074 C   0  0  0  0  0  0  0  0  0  0  0  0
   -0.4655    4.3675    3.2757 C   0  0  0  0  0  0  0  0  0  0  0  0
   -2.6824   -5.3578   -4.7116 C   0  0  0  0  0  0  0  0  0  0  0  0
   -0.4349   -0.0568   -4.9879 C   0  0  0  0  0  0  0  0  0  0  0  0
   -3.9425   -6.7810   -5.6662 H   0  0  0  0  0  0  0  0  0  0  0  0
   -2.7840    6.7516    2.8634 H   0  0  0  0  0  0  0  0  0  0  0  0
   -0.1583   -3.7756   -2.7343 C   0  0  0  0  0  0  0  0  0  0  0  0
    0.2734    1.3787    1.0308 C   0  0  0  0  0  0  0  0  0  0  0  0
   -2.6287   -8.7317   -4.9425 H   0  0  0  0  0  0  0  0  0  0  0  0
  1 19  1  0  0  0  0
  2 12  4  0  0  0  0
  2 42  4  0  0  0  0
  2 54  4  0  0  0  0
  3 27  1  0  0  0  0
  4 52  4  0  0  0  0
  4 60  4  0  0  0  0
  5 56  1  0  0  0  0
  6 30  4  0  0  0  0
  6 35  4  0  0  0  0
  6 44  1  0  0  0  0
  7 25  4  0  0  0  0
  7 56  4  0  0  0  0
  7 58  1  0  0  0  0
  8 37  1  0  0  0  0
  9 57  1  0  0  0  0
 10 41  1  0  0  0  0
 11 17  4  0  0  0  0
 11 21  1  0  0  0  0
 11 55  4  0  0  0  0
 12 61  4  0  0  0  0
 13 19  4  0  0  0  0
 13 38  1  0  0  0  0
 13 44  4  0  0  0  0
 14 17  1  0  0  0  0
 15 43  4  0  0  0  0
 15 47  1  0  0  0  0
 15 57  4  0  0  0  0
 16 50  1  0  0  0  0
 17 20  4  0  0  0  0
 18 19  4  0  0  0  0
 18 50  4  0  0  0  0
 18 51  1  0  0  0  0
 20 49  4  0  0  0  0
 20 59  1  0  0  0  0
 22 23  3  0  0  0  0
 22 53  1  0  0  0  0
 24 26  4  0  0  0  0
 24 27  4  0  0  0  0
 24 34  1  0  0  0  0
 25 53  4  0  0  0  0
 25 62  1  0  0  0  0
 26 30  4  0  0  0  0
 26 61  4  0  0  0  0
 27 49  4  0  0  0  0
 28 33  4  0  0  0  0
 28 41  4  0  0  0  0
 28 61  4  0  0  0  0
 29 31  1  0  0  0  0
 29 32  4  0  0  0  0
 29 54  4  0  0  0  0
 30 55  4  0  0  0  0
 32 57  4  0  0  0  0
 33 35  4  0  0  0  0
 33 39  1  0  0  0  0
 36 46  1  0  0  0  0
 37 42  4  0  0  0  0
 37 45  4  0  0  0  0
 40 46  4  0  0  0  0
 40 48  4  0  0  0  0
 41 42  4  0  0  0  0
 43 45  4  0  0  0  0
 43 54  4  0  0  0  0
 44 50  4  0  0  0  0
 45 60  1  0  0  0  0
 46 60  4  0  0  0  0
 48 52  4  0  0  0  0
 48 53  4  0  0  0  0
 49 55  4  0  0  0  0
 52 56  4  0  0  0  0
M  END
$$$$
