 energy: -136.245382202883 gnorm: 0.003715036568 xtb: 6.7.1 (edcfbbe)
          08212605333D

 80 90  0     0  0            999 V2000
    2.4518   10.3783   -1.8035 O   0  0  0  0  0  0  0  0  0  0  0  0
    0.8329   -8.0121   -2.3142 C   0  0  0  0  0  0  0  0  0  0  0  0
    2.7730   11.0164   -3.7576 H   0  0  0  0  0  0  0  0  0  0  0  0
    1.2852   -0.4060    0.3798 N   0  0  0  0  0  0  0  0  0  0  0  0
   -0.0361   -6.1922   -2.9227 H   0  0  0  0  0  0  0  0  0  0  0  0
    1.8714    8.7119   -0.0521 N   0  0  0  0  0  0  0  0  0  0  0  0
   -1.2815   -1.2987    2.4592 C   0  0  0  0  0  0  0  0  0  0  0  0
    1.2373   -8.8323   -1.2527 C   0  0  0  0  0  0  0  0  0  0  0  0
    1.0100   -2.6419   -0.3834 H   0  0  0  0  0  0  0  0  0  0  0  0
    2.1530    8.8992   -3.5045 C   0  0  0  0  0  0  0  0  0  0  0  0
   -0.6784   -4.6548    0.8369 C   0  0  0  0  0  0  0  0  0  0  0  0
    0.9559   -8.3591   -3.3295 H   0  0  0  0  0  0  0  0  0  0  0  0
    2.0818    9.1975   -1.3011 C   0  0  0  0  0  0  0  0  0  0  0  0
   -3.1765   -1.8133    1.2880 C   0  0  0  0  0  0  0  0  0  0  0  0
    0.3623   -0.7201   -0.4838 C   0  0  0  0  0  0  0  0  0  0  0  0
    0.6974    3.7658   -2.8748 C   0  0  0  0  0  0  0  0  0  0  0  0
   -5.1009   -2.2881    0.2042 C   0  0  0  0  0  0  0  0  0  0  0  0
    0.8934    5.1581    0.4375 C   0  0  0  0  0  0  0  0  0  0  0  0
   -0.7216    1.5510    4.8092 C   0  0  0  0  0  0  0  0  0  0  0  0
   -0.8191   -2.6320   -1.3736 C   0  0  0  0  0  0  0  0  0  0  0  0
    0.3334   -2.7411    2.4281 H   0  0  0  0  0  0  0  0  0  0  0  0
    0.2931   -6.7167    1.6362 C   0  0  0  0  0  0  0  0  0  0  0  0
    0.6516    1.4367    4.9756 C   0  0  0  0  0  0  0  0  0  0  0  0
   -2.4881   -0.9642    2.0564 N   0  0  0  0  0  0  0  0  0  0  0  0
    0.7695   -0.3411    3.5687 C   0  0  0  0  0  0  0  0  0  0  0  0
   -6.0924   -1.9818   -0.1034 H   0  0  0  0  0  0  0  0  0  0  0  0
    1.4226   -1.0486    3.0804 H   0  0  0  0  0  0  0  0  0  0  0  0
    0.5291    2.9349   -3.5325 H   0  0  0  0  0  0  0  0  0  0  0  0
    0.0182   -4.2436   -2.3953 H   0  0  0  0  0  0  0  0  0  0  0  0
   -0.4246    1.4921   -1.4121 C   0  0  0  0  0  0  0  0  0  0  0  0
   -0.4577   -5.0151   -0.4775 C   0  0  0  0  0  0  0  0  0  0  0  0
    0.6153    4.4418    1.1948 H   0  0  0  0  0  0  0  0  0  0  0  0
    0.9305    4.7966   -0.9118 C   0  0  0  0  0  0  0  0  0  0  0  0
   -4.7293   -3.5199   -0.1759 N   0  0  0  0  0  0  0  0  0  0  0  0
   -1.1112    1.8890   -2.1475 H   0  0  0  0  0  0  0  0  0  0  0  0
    1.5110    7.0437   -1.5830 C   0  0  0  0  0  0  0  0  0  0  0  0
   -1.7144   -4.3983   -2.1031 H   0  0  0  0  0  0  0  0  0  0  0  0
    2.0688    2.8689    0.4668 H   0  0  0  0  0  0  0  0  0  0  0  0
    1.9523    9.2091    0.8172 H   0  0  0  0  0  0  0  0  0  0  0  0
   -2.7182   -2.1617   -2.2257 H   0  0  0  0  0  0  0  0  0  0  0  0
   -1.8047   -1.7965   -1.7815 C   0  0  0  0  0  0  0  0  0  0  0  0
    0.5342    2.3218   -0.9214 C   0  0  0  0  0  0  0  0  0  0  0  0
    1.1852    5.7322   -1.9396 C   0  0  0  0  0  0  0  0  0  0  0  0
    0.2825   -6.7825   -2.0778 C   0  0  0  0  0  0  0  0  0  0  0  0
   -0.4629   -5.1885    2.9048 H   0  0  0  0  0  0  0  0  0  0  0  0
    1.0323    5.0474   -3.1746 C   0  0  0  0  0  0  0  0  0  0  0  0
    1.5191    7.3765   -0.2054 C   0  0  0  0  0  0  0  0  0  0  0  0
    1.7072    0.8327    0.7078 C   0  0  0  0  0  0  0  0  0  0  0  0
    0.6512    3.5855   -1.5118 N   0  0  0  0  0  0  0  0  0  0  0  0
    1.3532   -9.0297    0.8651 H   0  0  0  0  0  0  0  0  0  0  0  0
   -1.3163   -3.3909    1.2520 C   0  0  0  0  0  0  0  0  0  0  0  0
    0.1036   -6.2955   -0.7626 C   0  0  0  0  0  0  0  0  0  0  0  0
   -0.7668   -4.1009   -1.6447 C   0  0  0  0  0  0  0  0  0  0  0  0
    0.5961   -7.3638    2.4459 H   0  0  0  0  0  0  0  0  0  0  0  0
   -0.6275    0.0894   -1.1740 C   0  0  0  0  0  0  0  0  0  0  0  0
   -3.2402   -4.9115   -0.1131 H   0  0  0  0  0  0  0  0  0  0  0  0
   -1.2745    2.3217    5.3226 H   0  0  0  0  0  0  0  0  0  0  0  0
   -2.6422   -3.0684    0.8685 C   0  0  0  0  0  0  0  0  0  0  0  0
    1.4726    2.0348    0.1297 C   0  0  0  0  0  0  0  0  0  0  0  0
    1.1924    6.4569    0.7893 C   0  0  0  0  0  0  0  0  0  0  0  0
   -0.6074   -0.3365    3.3368 C   0  0  0  0  0  0  0  0  0  0  0  0
   -2.4247    0.6817    3.8097 H   0  0  0  0  0  0  0  0  0  0  0  0
   -0.2841   -5.5110    1.8894 C   0  0  0  0  0  0  0  0  0  0  0  0
   -4.4198   -1.4484    0.9241 N   0  0  0  0  0  0  0  0  0  0  0  0
    0.4905   -7.1461    0.3079 C   0  0  0  0  0  0  0  0  0  0  0  0
    1.1717    6.7603    1.8248 H   0  0  0  0  0  0  0  0  0  0  0  0
   -1.6784   -0.4478   -1.7357 N   0  0  0  0  0  0  0  0  0  0  0  0
    1.8758    8.2322   -2.2783 C   0  0  0  0  0  0  0  0  0  0  0  0
    1.6766   -9.7971   -1.4591 H   0  0  0  0  0  0  0  0  0  0  0  0
   -1.3591    0.6504    3.9766 C   0  0  0  0  0  0  0  0  0  0  0  0
    1.0612   -8.4057    0.0326 C   0  0  0  0  0  0  0  0  0  0  0  0
   -3.5259   -3.9020    0.1598 C   0  0  0  0  0  0  0  0  0  0  0  0
    1.2000    2.1085    5.6246 H   0  0  0  0  0  0  0  0  0  0  0  0
    0.2853   -2.0534   -0.7751 N   0  0  0  0  0  0  0  0  0  0  0  0
    2.4893   10.1713   -3.1636 C   0  0  0  0  0  0  0  0  0  0  0  0
   -0.6635   -2.5143    2.0836 C   0  0  0  0  0  0  0  0  0  0  0  0
    2.4178    0.8008    1.5264 H   0  0  0  0  0  0  0  0  0  0  0  0
    1.3779    0.5162    4.3666 N   0  0  0  0  0  0  0  0  0  0  0  0
    1.1598    5.4648   -4.1526 H   0  0  0  0  0  0  0  0  0  0  0  0
    2.1120    8.4967   -4.4957 H   0  0  0  0  0  0  0  0  0  0  0  0
  1 13  4  0  0  0  0
  1 75  4  0  0  0  0
  2  8  4  0  0  0  0
  2 12  1  0  0  0  0
  2 44  4  0  0  0  0
  3 75  1  0  0  0  0
  4 15  2  0  0  0  0
  4 48  1  0  0  0  0
  5 44  1  0  0  0  0
  6 13  4  0  0  0  0
  6 39  1  0  0  0  0
  6 47  4  0  0  0  0
  7 24  4  0  0  0  0
  7 61  1  0  0  0  0
  7 76  4  0  0  0  0
  8 69  1  0  0  0  0
  8 71  4  0  0  0  0
  9 74  1  0  0  0  0
 10 68  4  0  0  0  0
 10 75  4  0  0  0  0
 10 80  1  0  0  0  0
 11 31  4  0  0  0  0
 11 51  1  0  0  0  0
 11 63  4  0  0  0  0
 13 68  4  0  0  0  0
 14 24  4  0  0  0  0
 14 58  4  0  0  0  0
 14 64  4  0  0  0  0
 15 55  1  0  0  0  0
 15 74  1  0  0  0  0
 16 28  1  0  0  0  0
 16 46  4  0  0  0  0
 16 49  4  0  0  0  0
 17 26  1  0  0  0  0
 17 34  4  0  0  0  0
 17 64  4  0  0  0  0
 18 32  1  0  0  0  0
 18 33  4  0  0  0  0
 18 60  4  0  0  0  0
 19 23  4  0  0  0  0
 19 57  1  0  0  0  0
 19 70  4  0  0  0  0
 20 41  2  0  0  0  0
 20 53  1  0  0  0  0
 20 74  1  0  0  0  0
 21 76  1  0  0  0  0
 22 54  1  0  0  0  0
 22 63  4  0  0  0  0
 22 65  4  0  0  0  0
 23 73  1  0  0  0  0
 23 78  4  0  0  0  0
 25 27  1  0  0  0  0
 25 61  4  0  0  0  0
 25 78  4  0  0  0  0
 29 53  1  0  0  0  0
 30 35  1  0  0  0  0
 30 42  2  0  0  0  0
 30 55  1  0  0  0  0
 31 52  4  0  0  0  0
 31 53  1  0  0  0  0
 33 43  4  0  0  0  0
 33 49  4  0  0  0  0
 34 72  4  0  0  0  0
 36 43  4  0  0  0  0
 36 47  4  0  0  0  0
 36 68  4  0  0  0  0
 37 53  1  0  0  0  0
 38 59  1  0  0  0  0
 40 41  1  0  0  0  0
 41 67  1  0  0  0  0
 42 49  1  0  0  0  0
 42 59  1  0  0  0  0
 43 46  4  0  0  0  0
 44 52  4  0  0  0  0
 45 63  1  0  0  0  0
 46 79  1  0  0  0  0
 47 60  4  0  0  0  0
 48 59  2  0  0  0  0
 48 77  1  0  0  0  0
 50 71  1  0  0  0  0
 51 58  4  0  0  0  0
 51 76  4  0  0  0  0
 52 65  4  0  0  0  0
 55 67  2  0  0  0  0
 56 72  1  0  0  0  0
 58 72  4  0  0  0  0
 60 66  1  0  0  0  0
 61 70  4  0  0  0  0
 62 70  1  0  0  0  0
 65 71  4  0  0  0  0
M  END
$$$$
