 energy: -113.534861692467 gnorm: 0.001996871624 xtb: 6.7.1 (edcfbbe)
          08212605333D

 62 70  0     0  0            999 V2000
    3.7156    4.6278    6.8797 F   0  0  0  0  0  0  0  0  0  0  0  0
   -0.1258    0.2571   -0.9236 C   0  0  0  0  0  0  0  0  0  0  0  0
   -1.7808    3.7693    0.3503 H   0  0  0  0  0  0  0  0  0  0  0  0
   -1.3743   -4.0850   -3.1528 N   0  0  0  0  0  0  0  0  0  0  0  0
   -3.6244   -5.1417   -3.8013 H   0  0  0  0  0  0  0  0  0  0  0  0
    1.3859    2.7471    2.9552 C   0  0  0  0  0  0  0  0  0  0  0  0
   -2.9686   -7.1163   -4.3158 C   0  0  0  0  0  0  0  0  0  0  0  0
    1.3498   -2.8344   -0.8444 H   0  0  0  0  0  0  0  0  0  0  0  0
   -3.1385   -0.3299   -5.1988 H   0  0  0  0  0  0  0  0  0  0  0  0
    2.2579   -1.4209    0.8445 H   0  0  0  0  0  0  0  0  0  0  0  0
    0.0889    4.6336    3.0780 C   0  0  0  0  0  0  0  0  0  0  0  0
   -0.1834    1.3966   -0.1467 C   0  0  0  0  0  0  0  0  0  0  0  0
    1.9581    4.1493    4.8257 C   0  0  0  0  0  0  0  0  0  0  0  0
   -2.8242    8.4150    3.2643 N   0  0  0  0  0  0  0  0  0  0  0  0
   -0.9385   -1.1932   -2.7677 C   0  0  0  0  0  0  0  0  0  0  0  0
    3.8905    1.3203    4.7365 H   0  0  0  0  0  0  0  0  0  0  0  0
   -2.2740    7.4500    2.9800 C   0  0  0  0  0  0  0  0  0  0  0  0
    3.4426    2.5550    7.3829 F   0  0  0  0  0  0  0  0  0  0  0  0
    3.7891    3.3881    6.3792 C   0  0  0  0  0  0  0  0  0  0  0  0
   -2.0387    5.5038    1.5467 C   0  0  0  0  0  0  0  0  0  0  0  0
   -0.2117    6.3866    4.2809 H   0  0  0  0  0  0  0  0  0  0  0  0
    0.2420   -8.2152   -4.2277 H   0  0  0  0  0  0  0  0  0  0  0  0
    1.7539   -6.3297   -3.5124 H   0  0  0  0  0  0  0  0  0  0  0  0
   -0.3319    3.8721    1.9488 C   0  0  0  0  0  0  0  0  0  0  0  0
   -1.8708   -7.9855   -4.4314 C   0  0  0  0  0  0  0  0  0  0  0  0
    1.1842    3.9256    3.7226 C   0  0  0  0  0  0  0  0  0  0  0  0
   -1.4068    4.3214    1.1971 C   0  0  0  0  0  0  0  0  0  0  0  0
    1.5444    0.5335    1.3586 C   0  0  0  0  0  0  0  0  0  0  0  0
   -1.7217    1.0743   -2.6709 C   0  0  0  0  0  0  0  0  0  0  0  0
    0.5091    2.6799    1.8671 C   0  0  0  0  0  0  0  0  0  0  0  0
   -1.7343    2.0689   -2.2468 H   0  0  0  0  0  0  0  0  0  0  0  0
   -2.4787    0.9287   -3.7316 N   0  0  0  0  0  0  0  0  0  0  0  0
    2.3995    0.6503    2.4634 C   0  0  0  0  0  0  0  0  0  0  0  0
   -0.8510    2.1926   -0.4228 H   0  0  0  0  0  0  0  0  0  0  0  0
    2.3464    1.7725    3.2843 C   0  0  0  0  0  0  0  0  0  0  0  0
    1.9506   -3.9756   -2.7506 H   0  0  0  0  0  0  0  0  0  0  0  0
    0.7230   -2.0408   -1.2263 C   0  0  0  0  0  0  0  0  0  0  0  0
    1.8481    5.0275    5.4427 H   0  0  0  0  0  0  0  0  0  0  0  0
    3.0941   -0.1494    2.6755 H   0  0  0  0  0  0  0  0  0  0  0  0
    0.8800   -5.7013   -3.4027 C   0  0  0  0  0  0  0  0  0  0  0  0
    1.5758   -0.6287    0.5690 C   0  0  0  0  0  0  0  0  0  0  0  0
    0.7505   -0.8012   -0.5235 C   0  0  0  0  0  0  0  0  0  0  0  0
   -1.7417   -1.3286   -3.9069 C   0  0  0  0  0  0  0  0  0  0  0  0
    2.9378    3.1797    5.1572 C   0  0  0  0  0  0  0  0  0  0  0  0
   -0.1096   -2.2699   -2.2744 C   0  0  0  0  0  0  0  0  0  0  0  0
    0.9878   -4.4104   -2.9720 C   0  0  0  0  0  0  0  0  0  0  0  0
   -1.7752   -2.2677   -4.4328 H   0  0  0  0  0  0  0  0  0  0  0  0
   -0.3926   -6.2281   -3.7110 C   0  0  0  0  0  0  0  0  0  0  0  0
   -1.6088    6.2492    2.6454 C   0  0  0  0  0  0  0  0  0  0  0  0
    3.1351    2.0303    4.4332 C   0  0  0  0  0  0  0  0  0  0  0  0
    5.0920    3.1504    6.1401 F   0  0  0  0  0  0  0  0  0  0  0  0
   -1.5053   -5.3521   -3.5823 C   0  0  0  0  0  0  0  0  0  0  0  0
   -0.6071   -7.5518   -4.1386 C   0  0  0  0  0  0  0  0  0  0  0  0
   -0.9288    0.0599   -2.1111 C   0  0  0  0  0  0  0  0  0  0  0  0
   -0.5327    5.8111    3.4256 C   0  0  0  0  0  0  0  0  0  0  0  0
   -2.7957   -5.8256   -3.9015 C   0  0  0  0  0  0  0  0  0  0  0  0
   -2.4950   -0.2572   -4.3323 C   0  0  0  0  0  0  0  0  0  0  0  0
   -3.9561   -7.4818   -4.5565 H   0  0  0  0  0  0  0  0  0  0  0  0
   -2.8795    5.8574    0.9681 H   0  0  0  0  0  0  0  0  0  0  0  0
   -0.1863   -3.6259   -2.8402 C   0  0  0  0  0  0  0  0  0  0  0  0
    0.5936    1.5655    1.0100 C   0  0  0  0  0  0  0  0  0  0  0  0
   -2.0341   -9.0027   -4.7552 H   0  0  0  0  0  0  0  0  0  0  0  0
  1 19  1  0  0  0  0
  2 12  4  0  0  0  0
  2 42  4  0  0  0  0
  2 54  4  0  0  0  0
  3 27  1  0  0  0  0
  4 52  4  0  0  0  0
  4 60  4  0  0  0  0
  5 56  1  0  0  0  0
  6 26  4  0  0  0  0
  6 30  4  0  0  0  0
  6 35  4  0  0  0  0
  7 25  4  0  0  0  0
  7 56  4  0  0  0  0
  7 58  1  0  0  0  0
  8 37  1  0  0  0  0
  9 57  1  0  0  0  0
 10 41  1  0  0  0  0
 11 24  4  0  0  0  0
 11 26  1  0  0  0  0
 11 55  4  0  0  0  0
 12 34  1  0  0  0  0
 12 61  4  0  0  0  0
 13 26  4  0  0  0  0
 13 38  1  0  0  0  0
 13 44  4  0  0  0  0
 14 17  3  0  0  0  0
 15 43  4  0  0  0  0
 15 45  4  0  0  0  0
 15 54  4  0  0  0  0
 16 50  1  0  0  0  0
 17 49  1  0  0  0  0
 18 19  1  0  0  0  0
 19 44  1  0  0  0  0
 19 51  1  0  0  0  0
 20 27  4  0  0  0  0
 20 49  4  0  0  0  0
 20 59  1  0  0  0  0
 21 55  1  0  0  0  0
 22 53  1  0  0  0  0
 23 40  1  0  0  0  0
 24 27  4  0  0  0  0
 24 30  1  0  0  0  0
 25 53  4  0  0  0  0
 25 62  1  0  0  0  0
 28 33  4  0  0  0  0
 28 41  4  0  0  0  0
 28 61  4  0  0  0  0
 29 31  1  0  0  0  0
 29 32  4  0  0  0  0
 29 54  4  0  0  0  0
 30 61  4  0  0  0  0
 32 57  4  0  0  0  0
 33 35  4  0  0  0  0
 33 39  1  0  0  0  0
 35 50  4  0  0  0  0
 36 46  1  0  0  0  0
 37 42  4  0  0  0  0
 37 45  4  0  0  0  0
 40 46  4  0  0  0  0
 40 48  4  0  0  0  0
 41 42  4  0  0  0  0
 43 47  1  0  0  0  0
 43 57  4  0  0  0  0
 44 50  4  0  0  0  0
 45 60  1  0  0  0  0
 46 60  4  0  0  0  0
 48 52  4  0  0  0  0
 48 53  4  0  0  0  0
 49 55  4  0  0  0  0
 52 56  4  0  0  0  0
M  END
$$$$
