 energy: -138.719661595023 gnorm: 0.000655144097 xtb: 6.7.1 (edcfbbe)
          08202606263D

 76 85  0     0  0            999 V2000
    0.7923   -1.6943    3.5378 C   0  0  0  0  0  0  0  0  0  0  0  0
    0.1658    2.4076   -6.5368 H   0  0  0  0  0  0  0  0  0  0  0  0
   -3.5711    4.6310   -1.6866 H   0  0  0  0  0  0  0  0  0  0  0  0
   -4.0081    2.5582   -6.3748 H   0  0  0  0  0  0  0  0  0  0  0  0
    0.9848   -0.8074   -0.2057 C   0  0  0  0  0  0  0  0  0  0  0  0
    6.0981   -7.7760    1.5701 H   0  0  0  0  0  0  0  0  0  0  0  0
    0.0105    0.0720    1.9655 C   0  0  0  0  0  0  0  0  0  0  0  0
   -0.9216    2.2831   -3.8382 N   0  0  0  0  0  0  0  0  0  0  0  0
   -3.1822    3.6423    1.4780 N   0  0  0  0  0  0  0  0  0  0  0  0
   -4.6226    5.5376   -0.1071 C   0  0  0  0  0  0  0  0  0  0  0  0
   -1.3545    2.5835   -8.1449 C   0  0  0  0  0  0  0  0  0  0  0  0
   -3.2684    2.3866   -4.0142 N   0  0  0  0  0  0  0  0  0  0  0  0
    3.8362   -7.1174    2.6191 H   0  0  0  0  0  0  0  0  0  0  0  0
    3.1193   -1.8195   -0.5466 N   0  0  0  0  0  0  0  0  0  0  0  0
   -3.4627    2.7170   -8.8370 H   0  0  0  0  0  0  0  0  0  0  0  0
    6.7944   -4.0949    0.8385 C   0  0  0  0  0  0  0  0  0  0  0  0
    3.3425   -3.0864   -2.1264 H   0  0  0  0  0  0  0  0  0  0  0  0
   -4.3023    2.3220   -2.2524 H   0  0  0  0  0  0  0  0  0  0  0  0
   -1.0668    1.2959    3.8732 O   0  0  0  0  0  0  0  0  0  0  0  0
    5.5551   -4.3976    1.4741 C   0  0  0  0  0  0  0  0  0  0  0  0
    7.6731   -4.9911    0.5132 N   0  0  0  0  0  0  0  0  0  0  0  0
   -0.8230    1.0062    2.5815 C   0  0  0  0  0  0  0  0  0  0  0  0
    1.1800   -4.1856    3.6445 C   0  0  0  0  0  0  0  0  0  0  0  0
    1.6318   -2.8885    3.2630 C   0  0  0  0  0  0  0  0  0  0  0  0
   -2.1491    2.4974   -1.9302 C   0  0  0  0  0  0  0  0  0  0  0  0
    4.0790   -6.0905    2.3754 C   0  0  0  0  0  0  0  0  0  0  0  0
    0.5045   -2.3931    5.4363 H   0  0  0  0  0  0  0  0  0  0  0  0
   -3.0503    3.6130    0.1247 C   0  0  0  0  0  0  0  0  0  0  0  0
    6.2685   -6.7268    1.3770 C   0  0  0  0  0  0  0  0  0  0  0  0
   -5.1851    6.4221   -0.9812 O   0  0  0  0  0  0  0  0  0  0  0  0
    2.3210   -1.0271    0.1394 C   0  0  0  0  0  0  0  0  0  0  0  0
   -1.4318    1.8021    0.3259 C   0  0  0  0  0  0  0  0  0  0  0  0
   -1.9524    2.4490   -5.9917 C   0  0  0  0  0  0  0  0  0  0  0  0
    3.5736   -3.7102    2.3663 C   0  0  0  0  0  0  0  0  0  0  0  0
   -0.7772    2.6287   -9.0467 H   0  0  0  0  0  0  0  0  0  0  0  0
   -5.0966    5.8066    1.1752 C   0  0  0  0  0  0  0  0  0  0  0  0
   -5.9890    7.2276   -0.2736 C   0  0  0  0  0  0  0  0  0  0  0  0
    0.2215   -4.2990    4.1269 H   0  0  0  0  0  0  0  0  0  0  0  0
   -0.8582    2.4686   -6.8432 C   0  0  0  0  0  0  0  0  0  0  0  0
    0.2802   -1.5579    4.7870 C   0  0  0  0  0  0  0  0  0  0  0  0
   -0.8699    0.6932    5.0464 C   0  0  0  0  0  0  0  0  0  0  0  0
   -0.6138    0.8923   -0.2392 N   0  0  0  0  0  0  0  0  0  0  0  0
   -0.4696   -0.6463    6.5182 H   0  0  0  0  0  0  0  0  0  0  0  0
   -2.0366    2.3751   -4.5673 C   0  0  0  0  0  0  0  0  0  0  0  0
    0.7858   -0.9164    2.4487 O   0  0  0  0  0  0  0  0  0  0  0  0
   -2.7289    2.6311   -8.0595 C   0  0  0  0  0  0  0  0  0  0  0  0
   -0.5079   -1.2480   -1.6746 H   0  0  0  0  0  0  0  0  0  0  0  0
    4.7236   -3.4137    1.7850 N   0  0  0  0  0  0  0  0  0  0  0  0
   -2.4880    2.8441    2.2221 C   0  0  0  0  0  0  0  0  0  0  0  0
   -1.5584    1.8961    1.7285 C   0  0  0  0  0  0  0  0  0  0  0  0
    1.3485   -2.2615   -2.0757 C   0  0  0  0  0  0  0  0  0  0  0  0
   -2.2021    2.6523   -0.4947 C   0  0  0  0  0  0  0  0  0  0  0  0
    5.2846   -5.7785    1.7478 C   0  0  0  0  0  0  0  0  0  0  0  0
    1.9556   -5.2612    3.3470 C   0  0  0  0  0  0  0  0  0  0  0  0
    1.0073   -2.7604   -2.9698 H   0  0  0  0  0  0  0  0  0  0  0  0
   -6.5149    7.9913   -0.8124 H   0  0  0  0  0  0  0  0  0  0  0  0
   -3.3245    2.4084   -2.7102 C   0  0  0  0  0  0  0  0  0  0  0  0
   -3.7393    4.5800   -0.6213 C   0  0  0  0  0  0  0  0  0  0  0  0
    2.7754   -0.5426    0.9903 H   0  0  0  0  0  0  0  0  0  0  0  0
    2.7600   -2.6744    2.6516 N   0  0  0  0  0  0  0  0  0  0  0  0
    7.4153   -6.2881    0.7835 C   0  0  0  0  0  0  0  0  0  0  0  0
    8.1981   -6.9739    0.4883 H   0  0  0  0  0  0  0  0  0  0  0  0
   -0.9776    2.3776   -2.5624 N   0  0  0  0  0  0  0  0  0  0  0  0
    2.6453   -2.4353   -1.6139 C   0  0  0  0  0  0  0  0  0  0  0  0
   -2.6574    2.9291    3.2876 H   0  0  0  0  0  0  0  0  0  0  0  0
   -6.5222    7.3746    1.8372 H   0  0  0  0  0  0  0  0  0  0  0  0
    3.2010   -5.0645    2.6971 C   0  0  0  0  0  0  0  0  0  0  0  0
    7.0187   -3.0633    0.6073 H   0  0  0  0  0  0  0  0  0  0  0  0
   -4.8194    5.2680    2.0554 H   0  0  0  0  0  0  0  0  0  0  0  0
    1.6437   -6.2685    3.5902 H   0  0  0  0  0  0  0  0  0  0  0  0
   -1.2700    1.3529    5.8091 H   0  0  0  0  0  0  0  0  0  0  0  0
    0.5092   -1.4280   -1.3601 C   0  0  0  0  0  0  0  0  0  0  0  0
    0.0922    0.1116    0.5197 C   0  0  0  0  0  0  0  0  0  0  0  0
   -3.0779    2.5510   -6.7608 N   0  0  0  0  0  0  0  0  0  0  0  0
   -5.9725    6.8939    1.0536 C   0  0  0  0  0  0  0  0  0  0  0  0
   -0.3735   -0.4926    5.4520 C   0  0  0  0  0  0  0  0  0  0  0  0
  1 24  1  0  0  0  0
  1 40  4  0  0  0  0
  1 45  4  0  0  0  0
  2 39  1  0  0  0  0
  3 58  1  0  0  0  0
  4 74  1  0  0  0  0
  5 31  4  0  0  0  0
  5 72  4  0  0  0  0
  5 73  1  0  0  0  0
  6 29  1  0  0  0  0
  7 22  4  0  0  0  0
  7 45  4  0  0  0  0
  7 73  4  0  0  0  0
  8 44  4  0  0  0  0
  8 63  4  0  0  0  0
  9 28  4  0  0  0  0
  9 49  4  0  0  0  0
 10 30  4  0  0  0  0
 10 36  4  0  0  0  0
 10 58  1  0  0  0  0
 11 35  1  0  0  0  0
 11 39  4  0  0  0  0
 11 46  4  0  0  0  0
 12 44  4  0  0  0  0
 12 57  4  0  0  0  0
 13 26  1  0  0  0  0
 14 31  4  0  0  0  0
 14 64  4  0  0  0  0
 15 46  1  0  0  0  0
 16 20  4  0  0  0  0
 16 21  4  0  0  0  0
 16 68  1  0  0  0  0
 17 64  1  0  0  0  0
 18 57  1  0  0  0  0
 19 22  4  0  0  0  0
 19 41  4  0  0  0  0
 20 48  4  0  0  0  0
 20 53  4  0  0  0  0
 21 61  4  0  0  0  0
 22 50  4  0  0  0  0
 23 24  4  0  0  0  0
 23 38  1  0  0  0  0
 23 54  4  0  0  0  0
 24 60  4  0  0  0  0
 25 52  1  0  0  0  0
 25 57  4  0  0  0  0
 25 63  4  0  0  0  0
 26 53  4  0  0  0  0
 26 67  4  0  0  0  0
 27 40  1  0  0  0  0
 28 52  4  0  0  0  0
 28 58  1  0  0  0  0
 29 53  4  0  0  0  0
 29 61  4  0  0  0  0
 30 37  4  0  0  0  0
 31 59  1  0  0  0  0
 32 42  4  0  0  0  0
 32 50  4  0  0  0  0
 32 52  4  0  0  0  0
 33 39  4  0  0  0  0
 33 44  1  0  0  0  0
 33 74  4  0  0  0  0
 34 48  4  0  0  0  0
 34 60  4  0  0  0  0
 34 67  4  0  0  0  0
 36 69  1  0  0  0  0
 36 75  4  0  0  0  0
 37 56  1  0  0  0  0
 37 75  4  0  0  0  0
 40 76  4  0  0  0  0
 41 71  1  0  0  0  0
 41 76  4  0  0  0  0
 42 73  4  0  0  0  0
 43 76  1  0  0  0  0
 46 74  4  0  0  0  0
 47 72  1  0  0  0  0
 49 50  4  0  0  0  0
 49 65  1  0  0  0  0
 51 55  1  0  0  0  0
 51 64  4  0  0  0  0
 51 72  4  0  0  0  0
 54 67  4  0  0  0  0
 54 70  1  0  0  0  0
 61 62  1  0  0  0  0
 66 75  1  0  0  0  0
M  END
$$$$
