00021
     RDKit          3D

 76 85  0  0  0  0  0  0  0  0999 V2000
    1.1171   -1.4935    3.6390 C   0  0  0  0  0  0  0  0  0  0  0  0
   -1.0969    2.8469   -8.3630 H   0  0  0  0  0  0  0  0  0  0  0  0
   -4.7909    4.3988   -1.7251 H   0  0  0  0  0  0  0  0  0  0  0  0
   -4.7222    4.6952   -6.9979 H   0  0  0  0  0  0  0  0  0  0  0  0
    1.3163   -1.3151   -0.5804 C   0  0  0  0  0  0  0  0  0  0  0  0
    6.1010   -8.5775    2.4510 H   0  0  0  0  0  0  0  0  0  0  0  0
    0.1060   -0.2703    1.4299 C   0  0  0  0  0  0  0  0  0  0  0  0
   -1.6715    2.5498   -4.8628 N   0  0  0  0  0  0  0  0  0  0  0  0
   -3.2488    3.0556    0.7881 N   0  0  0  0  0  0  0  0  0  0  0  0
   -4.8226    5.3018    0.3295 C   0  0  0  0  0  0  0  0  0  0  0  0
   -2.5318    4.3566   -9.3518 C   0  0  0  0  0  0  0  0  0  0  0  0
   -3.9381    2.4791   -4.8522 N   0  0  0  0  0  0  0  0  0  0  0  0
    3.9751   -7.3312    4.2513 H   0  0  0  0  0  0  0  0  0  0  0  0
    3.6260   -2.0623   -0.8871 N   0  0  0  0  0  0  0  0  0  0  0  0
   -4.3794    5.6285   -9.3743 H   0  0  0  0  0  0  0  0  0  0  0  0
    7.1872   -4.9997    2.0324 C   0  0  0  0  0  0  0  0  0  0  0  0
    4.2396   -2.8975   -2.7876 H   0  0  0  0  0  0  0  0  0  0  0  0
   -4.8328    1.6948   -3.1524 H   0  0  0  0  0  0  0  0  0  0  0  0
   -0.8973    1.0312    3.2405 O   0  0  0  0  0  0  0  0  0  0  0  0
    5.7559   -5.1882    2.4108 C   0  0  0  0  0  0  0  0  0  0  0  0
    8.0726   -5.9530    1.8130 N   0  0  0  0  0  0  0  0  0  0  0  0
   -0.7933    0.6918    1.8506 C   0  0  0  0  0  0  0  0  0  0  0  0
    1.6212   -3.7622    4.8239 C   0  0  0  0  0  0  0  0  0  0  0  0
    1.7828   -2.8412    3.7535 C   0  0  0  0  0  0  0  0  0  0  0  0
   -2.6726    2.0633   -2.7764 C   0  0  0  0  0  0  0  0  0  0  0  0
    4.2464   -6.4492    3.7234 C   0  0  0  0  0  0  0  0  0  0  0  0
    1.3612   -1.2566    5.7933 H   0  0  0  0  0  0  0  0  0  0  0  0
   -3.3685    3.0774   -0.4620 C   0  0  0  0  0  0  0  0  0  0  0  0
    6.4435   -7.5366    2.4151 C   0  0  0  0  0  0  0  0  0  0  0  0
   -5.8076    6.2498    0.0086 O   0  0  0  0  0  0  0  0  0  0  0  0
    2.6895   -1.5461   -0.1092 C   0  0  0  0  0  0  0  0  0  0  0  0
   -1.5883    1.1743   -0.4508 C   0  0  0  0  0  0  0  0  0  0  0  0
   -2.8441    3.5293   -7.0601 C   0  0  0  0  0  0  0  0  0  0  0  0
    3.5664   -4.2212    2.9487 C   0  0  0  0  0  0  0  0  0  0  0  0
   -2.1093    4.5441  -10.3630 H   0  0  0  0  0  0  0  0  0  0  0  0
   -4.4283    5.5784    1.6934 C   0  0  0  0  0  0  0  0  0  0  0  0
   -6.0307    7.1302    1.0618 C   0  0  0  0  0  0  0  0  0  0  0  0
    0.9903   -3.5428    5.7093 H   0  0  0  0  0  0  0  0  0  0  0  0
   -1.9874    3.4672   -8.1930 C   0  0  0  0  0  0  0  0  0  0  0  0
    0.8480   -0.7995    4.8507 C   0  0  0  0  0  0  0  0  0  0  0  0
   -0.8080    1.1233    4.5552 C   0  0  0  0  0  0  0  0  0  0  0  0
   -0.6856    0.1887   -0.8607 N   0  0  0  0  0  0  0  0  0  0  0  0
    0.0084    0.5179    6.4721 H   0  0  0  0  0  0  0  0  0  0  0  0
   -2.8163    2.8348   -5.5308 C   0  0  0  0  0  0  0  0  0  0  0  0
    0.9009   -1.0863    2.3274 O   0  0  0  0  0  0  0  0  0  0  0  0
   -3.7029    4.9326   -8.8655 C   0  0  0  0  0  0  0  0  0  0  0  0
    0.0452   -1.8418   -2.2599 H   0  0  0  0  0  0  0  0  0  0  0  0
    4.8275   -4.2196    2.3451 N   0  0  0  0  0  0  0  0  0  0  0  0
   -2.5919    2.2611    1.5346 C   0  0  0  0  0  0  0  0  0  0  0  0
   -1.6440    1.3644    0.9536 C   0  0  0  0  0  0  0  0  0  0  0  0
    2.1023   -2.3684   -2.6578 C   0  0  0  0  0  0  0  0  0  0  0  0
   -2.4956    2.0307   -1.2515 C   0  0  0  0  0  0  0  0  0  0  0  0
    5.4604   -6.4527    2.8499 C   0  0  0  0  0  0  0  0  0  0  0  0
    2.3372   -5.0263    4.8079 C   0  0  0  0  0  0  0  0  0  0  0  0
    1.8273   -2.7321   -3.6591 H   0  0  0  0  0  0  0  0  0  0  0  0
   -6.7652    7.9319    1.0062 H   0  0  0  0  0  0  0  0  0  0  0  0
   -3.8810    2.0227   -3.5892 C   0  0  0  0  0  0  0  0  0  0  0  0
   -4.4327    4.3440   -0.7596 C   0  0  0  0  0  0  0  0  0  0  0  0
    3.0136   -1.3193    0.8893 H   0  0  0  0  0  0  0  0  0  0  0  0
    2.6569   -3.2403    2.7420 N   0  0  0  0  0  0  0  0  0  0  0  0
    7.7018   -7.2461    1.8930 C   0  0  0  0  0  0  0  0  0  0  0  0
    8.4377   -8.0685    1.5833 H   0  0  0  0  0  0  0  0  0  0  0  0
   -1.5263    2.1279   -3.5867 N   0  0  0  0  0  0  0  0  0  0  0  0
    3.4039   -2.4586   -2.1561 C   0  0  0  0  0  0  0  0  0  0  0  0
   -2.7843    2.2913    2.6077 H   0  0  0  0  0  0  0  0  0  0  0  0
   -5.1074    7.3213    3.0530 H   0  0  0  0  0  0  0  0  0  0  0  0
    3.3537   -5.2653    3.8382 C   0  0  0  0  0  0  0  0  0  0  0  0
    7.5455   -3.9576    1.9192 H   0  0  0  0  0  0  0  0  0  0  0  0
   -3.7304    5.1356    2.4231 H   0  0  0  0  0  0  0  0  0  0  0  0
    2.1228   -5.7911    5.5601 H   0  0  0  0  0  0  0  0  0  0  0  0
   -1.4388    1.9150    5.0536 H   0  0  0  0  0  0  0  0  0  0  0  0
    1.0568   -1.8457   -1.8599 C   0  0  0  0  0  0  0  0  0  0  0  0
    0.1842   -0.4529    0.0267 C   0  0  0  0  0  0  0  0  0  0  0  0
   -3.8695    4.4257   -7.4993 N   0  0  0  0  0  0  0  0  0  0  0  0
   -5.1922    6.7801    2.1195 C   0  0  0  0  0  0  0  0  0  0  0  0
    0.0018    0.3231    5.3071 C   0  0  0  0  0  0  0  0  0  0  0  0
  1 24  1  0
  1 40  4  0
  1 45  4  0
  2 39  1  0
  3 58  1  0
  4 74  1  0
  5 31  4  0
  5 72  4  0
  5 73  1  0
  6 29  1  0
  7 22  4  0
  7 45  4  0
  7 73  4  0
  8 44  4  0
  8 63  4  0
  9 28  4  0
  9 49  4  0
 10 30  4  0
 10 36  4  0
 10 58  1  0
 11 35  1  0
 11 39  4  0
 11 46  4  0
 12 44  4  0
 12 57  4  0
 13 26  1  0
 14 31  4  0
 14 64  4  0
 15 46  1  0
 16 20  4  0
 16 21  4  0
 16 68  1  0
 17 64  1  0
 18 57  1  0
 19 22  4  0
 19 41  4  0
 20 48  4  0
 20 53  4  0
 21 61  4  0
 22 50  4  0
 23 24  4  0
 23 38  1  0
 23 54  4  0
 24 60  4  0
 25 52  1  0
 25 57  4  0
 25 63  4  0
 26 53  4  0
 26 67  4  0
 27 40  1  0
 28 52  4  0
 28 58  1  0
 29 53  4  0
 29 61  4  0
 30 37  4  0
 31 59  1  0
 32 42  4  0
 32 50  4  0
 32 52  4  0
 33 39  4  0
 33 44  1  0
 33 74  4  0
 34 48  4  0
 34 60  4  0
 34 67  4  0
 36 69  1  0
 36 75  4  0
 37 56  1  0
 37 75  4  0
 40 76  4  0
 41 71  1  0
 41 76  4  0
 42 73  4  0
 43 76  1  0
 46 74  4  0
 47 72  1  0
 49 50  4  0
 49 65  1  0
 51 55  1  0
 51 64  4  0
 51 72  4  0
 54 67  4  0
 54 70  1  0
 61 62  1  0
 66 75  1  0
M  END
>  <generation_index>  (1) 
21

>  <target_raw_property>  (1) 
0.5

>  <num_atoms>  (1) 
76

>  <sanitize_ok>  (1) 
True

>  <single_component>  (1) 
True

>  <canonical_smiles>  (1) 
[H]c1nc(-c2c([H])c([H])c([H])n2[H])nnc1-c1c(C([H])c2oc([H])c([H])c2[H])nc([H])c2c1nc(-c1c([H])nc([H])c([H])c1[H])c1oc(-c3nc4nc5c([H])nc([H])c([H])c5c([H])c4c([H])c3[H])c([H])c([H])c([H])oc12

>  <is_unique_generated>  (1) 
True

>  <dataset_membership_checked>  (1) 
True

>  <in_train_dataset>  (1) 
False

>  <in_val_dataset>  (1) 
False

>  <in_test_dataset>  (1) 
False

>  <in_any_dataset>  (1) 
False

>  <is_novel>  (1) 
True

$$$$
