 energy: -148.721001681223 gnorm: 0.001860783810 xtb: 6.7.1 (edcfbbe)
          08202606263D

 91101  0     0  0            999 V2000
   -5.0112   -5.0739   -3.0177 H   0  0  0  0  0  0  0  0  0  0  0  0
    0.2843   -0.9580   -4.3782 C   0  0  0  0  0  0  0  0  0  0  0  0
   -4.4236   -3.0116   -4.1834 H   0  0  0  0  0  0  0  0  0  0  0  0
   -2.4006    0.2193    7.2771 N   0  0  0  0  0  0  0  0  0  0  0  0
   -2.2102    2.7097   10.9150 H   0  0  0  0  0  0  0  0  0  0  0  0
   -2.3429   -3.0983   -3.6428 C   0  0  0  0  0  0  0  0  0  0  0  0
   -2.8359   -1.0332   -1.6005 H   0  0  0  0  0  0  0  0  0  0  0  0
    0.4879   -0.0739    4.8632 H   0  0  0  0  0  0  0  0  0  0  0  0
   -0.2589    2.9260    3.3406 C   0  0  0  0  0  0  0  0  0  0  0  0
   -0.5463   -0.9124    3.6995 H   0  0  0  0  0  0  0  0  0  0  0  0
    4.7147    0.1236   -6.8384 N   0  0  0  0  0  0  0  0  0  0  0  0
    0.2817    3.5151    2.1985 C   0  0  0  0  0  0  0  0  0  0  0  0
   -3.1094    0.7959   11.2774 C   0  0  0  0  0  0  0  0  0  0  0  0
   -0.8580    1.0082    2.0824 N   0  0  0  0  0  0  0  0  0  0  0  0
   -3.3103   -0.7200    9.4020 C   0  0  0  0  0  0  0  0  0  0  0  0
    6.6335    0.6620   -2.3182 N   0  0  0  0  0  0  0  0  0  0  0  0
   -2.5133    1.7634   10.4932 C   0  0  0  0  0  0  0  0  0  0  0  0
   -1.1155    4.1379    8.8367 H   0  0  0  0  0  0  0  0  0  0  0  0
   -0.8135    1.6522    3.2342 C   0  0  0  0  0  0  0  0  0  0  0  0
   -2.8381    0.5549    4.0786 C   0  0  0  0  0  0  0  0  0  0  0  0
    3.5012   -0.4772   -7.0580 C   0  0  0  0  0  0  0  0  0  0  0  0
    6.6616    1.1531   -7.2129 C   0  0  0  0  0  0  0  0  0  0  0  0
   -1.3819   -3.8077   -2.9231 C   0  0  0  0  0  0  0  0  0  0  0  0
   -1.8076    1.4022    6.9117 C   0  0  0  0  0  0  0  0  0  0  0  0
    5.3053    0.5836   -8.8472 H   0  0  0  0  0  0  0  0  0  0  0  0
    5.5630    0.6303   -7.8104 C   0  0  0  0  0  0  0  0  0  0  0  0
    0.3079    0.0848   -2.3928 C   0  0  0  0  0  0  0  0  0  0  0  0
    1.0625   -0.1722   -3.5679 C   0  0  0  0  0  0  0  0  0  0  0  0
   -3.2759    0.9856   12.3275 H   0  0  0  0  0  0  0  0  0  0  0  0
   -1.1725    3.4975    7.9708 C   0  0  0  0  0  0  0  0  0  0  0  0
    2.9294   -0.9741   -8.1937 C   0  0  0  0  0  0  0  0  0  0  0  0
   -0.7605    3.0792    5.6276 C   0  0  0  0  0  0  0  0  0  0  0  0
    1.6497   -1.4524   -7.8091 C   0  0  0  0  0  0  0  0  0  0  0  0
   -3.0329   -5.4286   -2.2831 C   0  0  0  0  0  0  0  0  0  0  0  0
   -0.2425    4.8830    6.6249 H   0  0  0  0  0  0  0  0  0  0  0  0
    6.3349    0.7106   -3.6767 C   0  0  0  0  0  0  0  0  0  0  0  0
   -0.5397   -0.3448    4.6264 C   0  0  0  0  0  0  0  0  0  0  0  0
    0.2378    2.8231    1.0071 C   0  0  0  0  0  0  0  0  0  0  0  0
   -3.6155   -1.6697    8.9874 H   0  0  0  0  0  0  0  0  0  0  0  0
    3.3560   -1.0051   -9.1737 H   0  0  0  0  0  0  0  0  0  0  0  0
    1.5429   -1.2103   -6.4705 C   0  0  0  0  0  0  0  0  0  0  0  0
    0.5229    0.7996   -1.2162 C   0  0  0  0  0  0  0  0  0  0  0  0
   -1.7302   -4.9601   -2.2478 C   0  0  0  0  0  0  0  0  0  0  0  0
   -3.3027   -6.3282   -1.7523 H   0  0  0  0  0  0  0  0  0  0  0  0
   -3.4230   -1.9931   -5.7743 H   0  0  0  0  0  0  0  0  0  0  0  0
    0.6302    3.2614    0.1029 H   0  0  0  0  0  0  0  0  0  0  0  0
   -1.3882    0.9238    4.4332 C   0  0  0  0  0  0  0  0  0  0  0  0
   -0.9763   -5.4954   -1.6910 H   0  0  0  0  0  0  0  0  0  0  0  0
    0.9179   -1.9097   -8.4414 H   0  0  0  0  0  0  0  0  0  0  0  0
   -1.6526    0.1449   -0.4221 N   0  0  0  0  0  0  0  0  0  0  0  0
    5.8147    0.6379   -1.7296 H   0  0  0  0  0  0  0  0  0  0  0  0
    1.4541    1.3145   -1.0384 H   0  0  0  0  0  0  0  0  0  0  0  0
   -2.7172   -1.3235   -5.3067 C   0  0  0  0  0  0  0  0  0  0  0  0
   -0.4944    0.8003   -0.2697 C   0  0  0  0  0  0  0  0  0  0  0  0
   -0.2715   -1.9844   -6.0400 H   0  0  0  0  0  0  0  0  0  0  0  0
   -3.2712   -0.1455    4.7869 H   0  0  0  0  0  0  0  0  0  0  0  0
    4.3611   -0.3209   -3.7564 H   0  0  0  0  0  0  0  0  0  0  0  0
    8.1016    1.6927   -4.6144 H   0  0  0  0  0  0  0  0  0  0  0  0
    5.3208    0.3442   -5.6198 C   0  0  0  0  0  0  0  0  0  0  0  0
   -2.7108    0.2482    8.6120 C   0  0  0  0  0  0  0  0  0  0  0  0
   -0.3587    1.5600    0.9859 C   0  0  0  0  0  0  0  0  0  0  0  0
   -0.9179   -0.9706    5.4299 H   0  0  0  0  0  0  0  0  0  0  0  0
   -1.8807   -0.5290   -1.5276 C   0  0  0  0  0  0  0  0  0  0  0  0
    7.2938    1.3665   -2.0234 H   0  0  0  0  0  0  0  0  0  0  0  0
    2.6625   -0.6187   -5.9967 O   0  0  0  0  0  0  0  0  0  0  0  0
   -1.9689   -1.9237   -4.3053 N   0  0  0  0  0  0  0  0  0  0  0  0
    0.5143   -1.5205   -5.6081 N   0  0  0  0  0  0  0  0  0  0  0  0
   -0.9376   -0.5756   -2.5391 C   0  0  0  0  0  0  0  0  0  0  0  0
   -3.4575    1.4496    4.0582 H   0  0  0  0  0  0  0  0  0  0  0  0
   -1.8592    0.6077   -5.2886 H   0  0  0  0  0  0  0  0  0  0  0  0
    0.7130    4.5018    2.2707 H   0  0  0  0  0  0  0  0  0  0  0  0
   -2.5565   -0.0778   -5.7376 C   0  0  0  0  0  0  0  0  0  0  0  0
   -0.9264   -1.2052   -3.7621 N   0  0  0  0  0  0  0  0  0  0  0  0
   -0.2217    3.6345    4.4966 O   0  0  0  0  0  0  0  0  0  0  0  0
   -3.9664   -1.1622   11.3808 H   0  0  0  0  0  0  0  0  0  0  0  0
    6.5145    0.9768   -5.8613 N   0  0  0  0  0  0  0  0  0  0  0  0
    7.5162    1.6250   -7.6518 H   0  0  0  0  0  0  0  0  0  0  0  0
   -3.9893   -4.7259   -2.9948 C   0  0  0  0  0  0  0  0  0  0  0  0
   -0.6904    3.9106    6.7529 C   0  0  0  0  0  0  0  0  0  0  0  0
   -2.3095    1.4931    9.1461 C   0  0  0  0  0  0  0  0  0  0  0  0
   -1.7335    2.2305    8.0583 C   0  0  0  0  0  0  0  0  0  0  0  0
   -3.6559   -3.5644   -3.6652 C   0  0  0  0  0  0  0  0  0  0  0  0
   -1.3227    1.8068    5.6647 C   0  0  0  0  0  0  0  0  0  0  0  0
   -2.5906   -0.5555    6.6668 H   0  0  0  0  0  0  0  0  0  0  0  0
   -3.1412    0.2944   -6.5563 H   0  0  0  0  0  0  0  0  0  0  0  0
   -0.3631   -3.4520   -2.8890 H   0  0  0  0  0  0  0  0  0  0  0  0
    5.1685    0.1598   -4.2668 C   0  0  0  0  0  0  0  0  0  0  0  0
    2.0443    0.1878   -3.7911 H   0  0  0  0  0  0  0  0  0  0  0  0
   -2.8444    0.1038    3.0895 H   0  0  0  0  0  0  0  0  0  0  0  0
    7.1451    1.2162   -4.6733 C   0  0  0  0  0  0  0  0  0  0  0  0
   -3.5026   -0.4277   10.7389 C   0  0  0  0  0  0  0  0  0  0  0  0
  1 78  1  0  0  0  0
  2 28  4  0  0  0  0
  2 67  1  0  0  0  0
  2 73  4  0  0  0  0
  3 82  1  0  0  0  0
  4 24  4  0  0  0  0
  4 60  4  0  0  0  0
  4 84  1  0  0  0  0
  5 17  1  0  0  0  0
  6 23  4  0  0  0  0
  6 66  1  0  0  0  0
  6 82  4  0  0  0  0
  7 63  1  0  0  0  0
  8 37  1  0  0  0  0
  9 12  4  0  0  0  0
  9 19  4  0  0  0  0
  9 74  1  0  0  0  0
 10 37  1  0  0  0  0
 11 21  1  0  0  0  0
 11 26  4  0  0  0  0
 11 59  4  0  0  0  0
 12 38  4  0  0  0  0
 12 71  1  0  0  0  0
 13 17  4  0  0  0  0
 13 29  1  0  0  0  0
 13 91  4  0  0  0  0
 14 19  4  0  0  0  0
 14 61  4  0  0  0  0
 15 39  1  0  0  0  0
 15 60  4  0  0  0  0
 15 91  4  0  0  0  0
 16 36  1  0  0  0  0
 16 51  1  0  0  0  0
 16 64  1  0  0  0  0
 17 80  4  0  0  0  0
 18 30  1  0  0  0  0
 19 47  1  0  0  0  0
 20 47  1  0  0  0  0
 20 56  1  0  0  0  0
 20 69  1  0  0  0  0
 20 89  1  0  0  0  0
 21 31  4  0  0  0  0
 21 65  4  0  0  0  0
 22 26  4  0  0  0  0
 22 76  4  0  0  0  0
 22 77  1  0  0  0  0
 23 43  4  0  0  0  0
 23 86  1  0  0  0  0
 24 81  4  0  0  0  0
 24 83  4  0  0  0  0
 25 26  1  0  0  0  0
 27 28  4  0  0  0  0
 27 42  4  0  0  0  0
 27 68  4  0  0  0  0
 28 88  1  0  0  0  0
 30 79  4  0  0  0  0
 30 81  4  0  0  0  0
 31 33  4  0  0  0  0
 31 40  1  0  0  0  0
 32 74  1  0  0  0  0
 32 79  4  0  0  0  0
 32 83  4  0  0  0  0
 33 41  4  0  0  0  0
 33 49  1  0  0  0  0
 34 43  4  0  0  0  0
 34 44  1  0  0  0  0
 34 78  4  0  0  0  0
 35 79  1  0  0  0  0
 36 87  4  0  0  0  0
 36 90  4  0  0  0  0
 37 47  1  0  0  0  0
 37 62  1  0  0  0  0
 38 46  1  0  0  0  0
 38 61  4  0  0  0  0
 41 65  4  0  0  0  0
 41 67  1  0  0  0  0
 42 52  1  0  0  0  0
 42 54  4  0  0  0  0
 43 48  1  0  0  0  0
 45 53  1  0  0  0  0
 47 83  1  0  0  0  0
 50 54  4  0  0  0  0
 50 63  4  0  0  0  0
 53 66  1  0  0  0  0
 53 72  2  0  0  0  0
 54 61  1  0  0  0  0
 55 67  1  0  0  0  0
 57 87  1  0  0  0  0
 58 90  1  0  0  0  0
 59 76  4  0  0  0  0
 59 87  4  0  0  0  0
 60 80  4  0  0  0  0
 63 68  4  0  0  0  0
 66 73  1  0  0  0  0
 68 73  4  0  0  0  0
 70 72  1  0  0  0  0
 72 85  1  0  0  0  0
 75 91  1  0  0  0  0
 76 90  4  0  0  0  0
 78 82  4  0  0  0  0
 80 81  4  0  0  0  0
M  END
$$$$
