00025
     RDKit          3D

 91101  0  0  0  0  0  0  0  0999 V2000
   -6.2636   -4.3502   -3.5639 H   0  0  0  0  0  0  0  0  0  0  0  0
    0.4976   -0.9039   -4.2040 C   0  0  0  0  0  0  0  0  0  0  0  0
   -4.6216   -2.8975   -4.7246 H   0  0  0  0  0  0  0  0  0  0  0  0
   -2.3303    0.3300    8.0014 N   0  0  0  0  0  0  0  0  0  0  0  0
   -2.0770    1.6022   12.5055 H   0  0  0  0  0  0  0  0  0  0  0  0
   -3.0054   -2.9922   -3.1455 C   0  0  0  0  0  0  0  0  0  0  0  0
   -2.7898   -1.0938   -1.4338 H   0  0  0  0  0  0  0  0  0  0  0  0
    0.1492   -0.1503    4.0389 H   0  0  0  0  0  0  0  0  0  0  0  0
   -1.4990    3.4425    3.4896 C   0  0  0  0  0  0  0  0  0  0  0  0
   -0.9384   -1.1831    4.3954 H   0  0  0  0  0  0  0  0  0  0  0  0
    5.4955    0.4843   -7.5318 N   0  0  0  0  0  0  0  0  0  0  0  0
   -1.4143    4.1570    2.2390 C   0  0  0  0  0  0  0  0  0  0  0  0
   -2.7673   -0.4052   12.2856 C   0  0  0  0  0  0  0  0  0  0  0  0
   -1.1693    1.4461    2.2493 N   0  0  0  0  0  0  0  0  0  0  0  0
   -3.0344   -1.1534   10.0018 C   0  0  0  0  0  0  0  0  0  0  0  0
    9.3237    0.5728   -4.0714 N   0  0  0  0  0  0  0  0  0  0  0  0
   -2.3185    0.8221   11.7446 C   0  0  0  0  0  0  0  0  0  0  0  0
   -1.5210    4.4326    9.5496 H   0  0  0  0  0  0  0  0  0  0  0  0
   -1.4356    2.0154    3.4222 C   0  0  0  0  0  0  0  0  0  0  0  0
   -3.0495    0.3433    4.2449 C   0  0  0  0  0  0  0  0  0  0  0  0
    4.0587   -0.2147   -7.3353 C   0  0  0  0  0  0  0  0  0  0  0  0
    7.3230    1.7033   -8.5758 C   0  0  0  0  0  0  0  0  0  0  0  0
   -2.8102   -3.5970   -1.8594 C   0  0  0  0  0  0  0  0  0  0  0  0
   -1.9124    1.5821    7.5978 C   0  0  0  0  0  0  0  0  0  0  0  0
    5.5757    1.1018   -9.7523 H   0  0  0  0  0  0  0  0  0  0  0  0
    6.0599    1.1019   -8.7921 C   0  0  0  0  0  0  0  0  0  0  0  0
    0.2921    0.3219   -2.2222 C   0  0  0  0  0  0  0  0  0  0  0  0
    1.1769    0.0608   -3.4166 C   0  0  0  0  0  0  0  0  0  0  0  0
   -2.8903   -0.5775   13.4740 H   0  0  0  0  0  0  0  0  0  0  0  0
   -1.6017    3.7411    8.6882 C   0  0  0  0  0  0  0  0  0  0  0  0
    3.5943   -0.9848   -8.4405 C   0  0  0  0  0  0  0  0  0  0  0  0
   -1.5629    3.4861    6.1213 C   0  0  0  0  0  0  0  0  0  0  0  0
    2.4039   -1.6644   -8.0085 C   0  0  0  0  0  0  0  0  0  0  0  0
   -5.0326   -4.6304   -1.7455 C   0  0  0  0  0  0  0  0  0  0  0  0
   -1.3729    5.3765    7.2673 H   0  0  0  0  0  0  0  0  0  0  0  0
    8.4257    0.7307   -5.1643 C   0  0  0  0  0  0  0  0  0  0  0  0
   -0.7130   -0.1797    4.6868 C   0  0  0  0  0  0  0  0  0  0  0  0
   -1.2084    3.4931    1.0112 C   0  0  0  0  0  0  0  0  0  0  0  0
   -3.4180   -1.9334    9.2942 H   0  0  0  0  0  0  0  0  0  0  0  0
    4.0758   -1.0173   -9.4246 H   0  0  0  0  0  0  0  0  0  0  0  0
    2.0574   -1.1868   -6.5701 C   0  0  0  0  0  0  0  0  0  0  0  0
    0.2779    1.2299   -1.1250 C   0  0  0  0  0  0  0  0  0  0  0  0
   -3.7788   -4.3834   -1.1832 C   0  0  0  0  0  0  0  0  0  0  0  0
   -5.8127   -5.2445   -1.1842 H   0  0  0  0  0  0  0  0  0  0  0  0
   -2.3793   -3.7595   -5.7056 H   0  0  0  0  0  0  0  0  0  0  0  0
   -1.1479    4.0519    0.0439 H   0  0  0  0  0  0  0  0  0  0  0  0
   -1.7138    1.1179    4.6452 C   0  0  0  0  0  0  0  0  0  0  0  0
   -3.5474   -4.8273   -0.1815 H   0  0  0  0  0  0  0  0  0  0  0  0
    1.8092   -2.3777   -8.5602 H   0  0  0  0  0  0  0  0  0  0  0  0
   -1.8636    0.4250   -0.4708 N   0  0  0  0  0  0  0  0  0  0  0  0
    9.0851    0.0323   -3.1538 H   0  0  0  0  0  0  0  0  0  0  0  0
    1.1080    1.9218   -0.9160 H   0  0  0  0  0  0  0  0  0  0  0  0
   -2.1447   -2.6645   -5.4580 C   0  0  0  0  0  0  0  0  0  0  0  0
   -0.8289    1.2666   -0.2263 C   0  0  0  0  0  0  0  0  0  0  0  0
    0.3316   -2.3440   -5.9495 H   0  0  0  0  0  0  0  0  0  0  0  0
   -3.3849   -0.2908    5.1122 H   0  0  0  0  0  0  0  0  0  0  0  0
    6.4808   -0.3683   -4.6251 H   0  0  0  0  0  0  0  0  0  0  0  0
    9.7588    2.0106   -6.3520 H   0  0  0  0  0  0  0  0  0  0  0  0
    6.5750    0.6578   -6.6321 C   0  0  0  0  0  0  0  0  0  0  0  0
   -2.5154    0.0525    9.4058 C   0  0  0  0  0  0  0  0  0  0  0  0
   -1.0577    2.1110    1.0158 C   0  0  0  0  0  0  0  0  0  0  0  0
   -0.6305   -0.2754    5.8833 H   0  0  0  0  0  0  0  0  0  0  0  0
   -1.8689   -0.5196   -1.4290 C   0  0  0  0  0  0  0  0  0  0  0  0
   10.2945    1.0638   -4.1449 H   0  0  0  0  0  0  0  0  0  0  0  0
    3.1076   -0.2919   -6.3007 O   0  0  0  0  0  0  0  0  0  0  0  0
   -1.8959   -2.2297   -4.0170 N   0  0  0  0  0  0  0  0  0  0  0  0
    0.9040   -1.5419   -5.6389 N   0  0  0  0  0  0  0  0  0  0  0  0
   -0.8397   -0.5605   -2.3547 C   0  0  0  0  0  0  0  0  0  0  0  0
   -3.8608    0.9944    4.0080 H   0  0  0  0  0  0  0  0  0  0  0  0
   -3.0749   -1.2789   -6.6728 H   0  0  0  0  0  0  0  0  0  0  0  0
   -1.5518    5.2715    2.2341 H   0  0  0  0  0  0  0  0  0  0  0  0
   -2.2925   -1.9477   -6.5769 C   0  0  0  0  0  0  0  0  0  0  0  0
   -0.7608   -1.2738   -3.5850 N   0  0  0  0  0  0  0  0  0  0  0  0
   -1.5795    4.2648    4.7996 O   0  0  0  0  0  0  0  0  0  0  0  0
   -3.5577   -2.3749   11.8125 H   0  0  0  0  0  0  0  0  0  0  0  0
    7.7273    1.3906   -7.2520 N   0  0  0  0  0  0  0  0  0  0  0  0
    7.8548    2.3255   -9.2737 H   0  0  0  0  0  0  0  0  0  0  0  0
   -5.2777   -4.1102   -3.0277 C   0  0  0  0  0  0  0  0  0  0  0  0
   -1.4770    4.2498    7.3477 C   0  0  0  0  0  0  0  0  0  0  0  0
   -2.2031    1.1255   10.1966 C   0  0  0  0  0  0  0  0  0  0  0  0
   -1.8666    2.2694    8.8902 C   0  0  0  0  0  0  0  0  0  0  0  0
   -4.3088   -3.3050   -3.7205 C   0  0  0  0  0  0  0  0  0  0  0  0
   -1.7013    2.0311    6.1195 C   0  0  0  0  0  0  0  0  0  0  0  0
   -2.6408   -0.2995    7.2625 H   0  0  0  0  0  0  0  0  0  0  0  0
   -1.6504   -1.9279   -7.4929 H   0  0  0  0  0  0  0  0  0  0  0  0
   -1.8392   -3.4287   -1.3546 H   0  0  0  0  0  0  0  0  0  0  0  0
    7.0395    0.2652   -5.3357 C   0  0  0  0  0  0  0  0  0  0  0  0
    2.1246    0.5370   -3.5687 H   0  0  0  0  0  0  0  0  0  0  0  0
   -2.8772   -0.3276    3.2731 H   0  0  0  0  0  0  0  0  0  0  0  0
    8.8409    1.4547   -6.2979 C   0  0  0  0  0  0  0  0  0  0  0  0
   -3.1414   -1.3993   11.3902 C   0  0  0  0  0  0  0  0  0  0  0  0
  1 78  1  0
  2 28  4  0
  2 67  1  0
  2 73  4  0
  3 82  1  0
  4 24  4  0
  4 60  4  0
  4 84  1  0
  5 17  1  0
  6 23  4  0
  6 66  1  0
  6 82  4  0
  7 63  1  0
  8 37  1  0
  9 12  4  0
  9 19  4  0
  9 74  1  0
 10 37  1  0
 11 21  1  0
 11 26  4  0
 11 59  4  0
 12 38  4  0
 12 71  1  0
 13 17  4  0
 13 29  1  0
 13 91  4  0
 14 19  4  0
 14 61  4  0
 15 39  1  0
 15 60  4  0
 15 91  4  0
 16 36  1  0
 16 51  1  0
 16 64  1  0
 17 80  4  0
 18 30  1  0
 19 47  1  0
 20 47  1  0
 20 56  1  0
 20 69  1  0
 20 89  1  0
 21 31  4  0
 21 65  4  0
 22 26  4  0
 22 76  4  0
 22 77  1  0
 23 43  4  0
 23 86  1  0
 24 81  4  0
 24 83  4  0
 25 26  1  0
 27 28  4  0
 27 42  4  0
 27 68  4  0
 28 88  1  0
 30 79  4  0
 30 81  4  0
 31 33  4  0
 31 40  1  0
 32 74  1  0
 32 79  4  0
 32 83  4  0
 33 41  4  0
 33 49  1  0
 34 43  4  0
 34 44  1  0
 34 78  4  0
 35 79  1  0
 36 87  4  0
 36 90  4  0
 37 47  1  0
 37 62  1  0
 38 46  1  0
 38 61  4  0
 41 65  4  0
 41 67  1  0
 42 52  1  0
 42 54  4  0
 43 48  1  0
 45 53  1  0
 47 83  1  0
 50 54  4  0
 50 63  4  0
 53 66  1  0
 53 72  2  0
 54 61  1  0
 55 67  1  0
 57 87  1  0
 58 90  1  0
 59 76  4  0
 59 87  4  0
 60 80  4  0
 63 68  4  0
 66 73  1  0
 68 73  4  0
 70 72  1  0
 72 85  1  0
 75 91  1  0
 76 90  4  0
 78 82  4  0
 80 81  4  0
M  END
>  <generation_index>  (1) 
25

>  <target_raw_property>  (1) 
0.5

>  <num_atoms>  (1) 
91

>  <sanitize_ok>  (1) 
True

>  <single_component>  (1) 
True

>  <canonical_smiles>  (1) 
[H]C([H])=C([H])N(c1c([H])c([H])c([H])c([H])c1[H])n1c(N([H])c2oc(-n3c([H])c([H])n4c([H])c(N([H])[H])c([H])c34)c([H])c2[H])c([H])c2c([H])c(-c3nc4c(c([H])c3[H])Oc3c([H])c([H])c5c6c([H])c([H])c([H])c([H])c6n([H])c5c3C4(C([H])([H])[H])C([H])([H])[H])nc([H])c21

>  <is_unique_generated>  (1) 
True

>  <dataset_membership_checked>  (1) 
True

>  <in_train_dataset>  (1) 
False

>  <in_val_dataset>  (1) 
False

>  <in_test_dataset>  (1) 
False

>  <in_any_dataset>  (1) 
False

>  <is_novel>  (1) 
True

$$$$
